
  EPA STORM WATER MANAGEMENT MODEL - VERSION 5.2 (Build 5.2.4)
  PYSWMM TOOLKIT API - VERSION v1.0 (2023-11-27)
  ------------------------------------------------------------

  WARNING 09: time series interval greater than recording interval for Rain Gage Gage1
  WARNING 04: minimum elevation drop used for Conduit C187
  WARNING 05: minimum slope used for Conduit C187
  WARNING 10: crest elevation raised to downstream invert for regulator Link 12
  WARNING 10: crest elevation raised to downstream invert for regulator Link J509-IC
  WARNING 10: crest elevation raised to downstream invert for regulator Link J789-IC
  WARNING 02: maximum depth increased for Node J182
  WARNING 02: maximum depth increased for Node J541
  WARNING 02: maximum depth increased for Node J714
  WARNING 02: maximum depth increased for Node J732
  WARNING 02: maximum depth increased for Node J756
  
  *************
  Element Count
  *************
  Number of rain gages ...... 1
  Number of subcatchments ... 92
  Number of nodes ........... 315
  Number of links ........... 387
  Number of pollutants ...... 0
  Number of land uses ....... 0
  
  
  ****************
  Raingage Summary
  ****************
                                                      Data       Recording
  Name                 Data Source                    Type       Interval 
  ------------------------------------------------------------------------
  Gage1                6/27/23_fullstorm_x2depth      CUMULATIVE   5 min.
  
  
  ********************
  Subcatchment Summary
  ********************
  Name                       Area     Width   %Imperv    %Slope Rain Gage            Outlet              
  -----------------------------------------------------------------------------------------------------------
  S1                        91.41   2532.81     33.30    6.2700 Gage1                J1-S                
  S10                       43.50   1719.16     69.11    5.3000 Gage1                J266-S              
  S11                      106.09   2358.92     83.63    4.3600 Gage1                J413-S              
  S12                      117.42   2473.75     83.71    4.8500 Gage1                J624-S              
  S13                      141.95   3727.03     70.69    5.8000 Gage1                J471-S              
  S14                       42.39    931.76     78.04    4.3000 Gage1                J632-S              
  S15                        9.01   1456.69     78.28    8.9900 Gage1                J329-S              
  S16                      119.58   2591.86     78.15    5.1300 Gage1                J361-S              
  S17                       45.50   2939.63     82.17    5.2600 Gage1                J338-S              
  S18                       52.08   2736.22     55.27    4.3600 Gage1                J460-S              
  S19                       82.54   2329.40     68.12    6.6000 Gage1                J433-S              
  S2                        99.82   3087.27     51.65    6.0700 Gage1                J268-S              
  S20                        2.80    406.82     82.59    1.9600 Gage1                J253-S              
  S21                        4.77    639.76     84.56    5.0900 Gage1                J253-S              
  S22                      128.00   3202.10     80.36    4.7600 Gage1                J659-S              
  S23                        1.74    406.82     87.83    3.0300 Gage1                J421-S              
  S24                       35.67   1309.06     88.29    3.2700 Gage1                J506-S              
  S25                       49.26   2765.75     87.15    3.0500 Gage1                J421-S              
  S26                       98.26   3989.50     88.42    3.8000 Gage1                J480-S              
  S27                      113.20   2185.04     84.48    3.8000 Gage1                J507-S              
  S28                       23.21   1309.06     85.59    3.7800 Gage1                J461-S              
  S29                        2.72    262.47     87.54    3.1100 Gage1                J456-S              
  S3                        37.26   1833.99     67.04    5.1400 Gage1                J273-S              
  S30                        1.61    291.99     88.95    3.0900 Gage1                J456-S              
  S31                       10.80    990.81     85.00    2.8600 Gage1                J456-S              
  S32                       68.78   2969.16     83.63    5.6700 Gage1                J619-S              
  S33                        0.96    262.47     78.90    2.7200 Gage1                J592-S              
  S34                       55.45   2155.51     80.76    3.2100 Gage1                J789-S              
  S35                       29.69   1427.17     65.47    4.5200 Gage1                J484-S              
  S36                       98.54   2270.34     87.31    4.6800 Gage1                J208-S              
  S37                       53.94   2998.69     73.87    4.5500 Gage1                J534-S              
  S38                       46.20   2706.69     86.93    4.5300 Gage1                J712-S              
  S39                       11.04    610.24     88.74    3.7600 Gage1                J484-S              
  S4                        12.07   1105.64     57.44    4.7000 Gage1                J260-S              
  S40                      129.10   1922.57     84.14    4.4700 Gage1                J756-S              
  S41                       28.53   1427.17     78.52    5.6500 Gage1                J49-S               
  S42                       34.13   1309.06     86.69    3.5100 Gage1                J492-S              
  S43                       66.90   1774.93     83.52    5.3500 Gage1                J714-S              
  S44                       60.68   1850.39     78.48    3.4100 Gage1                J587-S              
  S45                       59.33   3087.27     33.84    5.1200 Gage1                J509-S              
  S46                       12.60    495.41     85.63    4.0300 Gage1                J138-S              
  S47                       22.08   1630.58     82.72    2.7900 Gage1                J50-S               
  S48                       42.37   2125.98     87.75    4.6800 Gage1                J105-S              
  S49                        5.71    554.46     87.82    4.1700 Gage1                J748-S              
  S5                       103.39   4455.38     66.44    8.4500 Gage1                J571-S              
  S50                       44.66   2562.34     85.64    4.6700 Gage1                J141-S              
  S51                       31.76   1368.11     87.29    2.6600 Gage1                J749-S              
  S52                       35.64   1745.41     22.42    6.5500 Gage1                J509-S              
  S53                       31.26   1164.70     84.64    2.7000 Gage1                J204-S              
  S54                       28.34   1719.16     76.54    5.6000 Gage1                J733-S              
  S55                       59.38   2795.28     77.13    4.4100 Gage1                J675-S              
  S56                        1.18    226.00     21.59    1.4200 Gage1                J782-S              
  S57                        1.16    436.35     86.23    1.6700 Gage1                J131-S              
  S58                       44.56   1922.57     84.53    3.2500 Gage1                J60-S               
  S59                        0.82    206.69     79.25    4.5300 Gage1                J131-S              
  S6                        89.60   2358.92     80.53    5.0400 Gage1                J328-S              
  S60                       94.18   3300.52     83.73    4.0700 Gage1                J792-S              
  S62                       49.60   1833.99     82.03    3.6900 Gage1                J163-S              
  S63                      115.99   2706.69     84.71    4.3100 Gage1                J548-S              
  S64                       38.15   1512.47     86.74    2.3800 Gage1                J751-S              
  S65                       19.67   1279.53     87.12    1.7800 Gage1                J761-S              
  S67                       36.49   1955.38     67.71    8.5800 Gage1                J65                 
  S69                       17.71   1046.59     87.42    4.6200 Gage1                J171-S              
  S7                       174.60   4570.21     59.15    5.4400 Gage1                J787-S              
  S70                       13.11    639.76     87.28    4.8700 Gage1                J722-S              
  S71                        1.30    262.47     87.71    1.9500 Gage1                J732-S              
  S72                        5.25    843.18     85.48    2.0400 Gage1                J786                
  S73                        3.83    872.70     89.25    5.4600 Gage1                J798                
  S74                        2.82    639.76     84.09    3.2100 Gage1                Out126              
  S75                       35.19   1755.25     86.87    3.9900 Gage1                J762-S              
  S77                        0.17   1076.12     80.93    6.7600 Gage1                J694-S              
  S78                       28.51   2125.98     84.61    2.4400 Gage1                J775                
  S79                       14.97   1171.26     86.94    4.9900 Gage1                J2                  
  S8                       147.03   3435.04     83.57    5.1100 Gage1                J280-S              
  S80                       34.90   2755.91     86.64    3.3500 Gage1                J686-S              
  S81                       37.88   2201.44     81.80    4.3200 Gage1                J556-S              
  S83                       18.48   1571.52     75.10    7.5100 Gage1                J80-S               
  S84                       32.20   1922.57     83.27    3.8400 Gage1                J72-S               
  S85                       61.72   2096.46     85.25    5.6700 Gage1                J78-S               
  S86                       46.39   1833.99     87.70    4.2300 Gage1                J177-S              
  S87                        3.45    623.36     86.12    5.3000 Gage1                J2                  
  S88                       16.65   1368.11     86.22    4.7800 Gage1                J90                 
  S89                        0.48    629.92     83.81    1.9800 Gage1                J231-S              
  S9                         1.13    406.82     87.60    3.4100 Gage1                J801-S              
  S90                       65.65   2969.16     80.81    4.2700 Gage1                J42-S               
  S91                       66.03   1833.99     83.25    4.5100 Gage1                J234-S              
  S92                       25.45   1338.58     88.71    2.9200 Gage1                J541-S              
  S93                       36.63   1830.71     85.39    4.4900 Gage1                Out47               
  S94                       58.68   3303.81     84.81    5.0600 Gage1                J34-S               
  S95                       51.38   2562.34     71.97    3.2900 Gage1                J45-S               
  S96                       46.75   1833.99     86.24    2.8700 Gage1                J46-S               
  S97                       12.17    990.81     85.74    4.9400 Gage1                J238-S              


  *******************
  LID Control Summary
  *******************
                                   No. of        Unit        Unit      % Area    % Imperv      % Perv
  Subcatchment     LID Control      Units        Area       Width     Covered     Treated     Treated
  ---------------------------------------------------------------------------------------------------
  S12              GreenRoof            1    37303.27      306.18        0.73        0.73        0.00
  S12              GreenRoof            1     9809.92      296.76        0.19        0.19        0.00
  S12              BioRetention         1     1595.55       20.43        0.03        0.19        0.00
  S12              BioRetention         1     1247.46       18.94        0.02        0.11        0.00
  S12              BioRetention         1     1884.73       24.02        0.04        0.67        0.00
  S12              RainGarden           1      569.70       28.15        0.01        0.30        0.00
  S12              RainGarden           1      288.11       10.07        0.01        0.02        0.00
  S12              RainGarden           1      282.96       10.42        0.01        0.04        0.00
  S12              RainGarden           1      223.90        9.61        0.00        0.03        0.00
  S12              BioRetention         1      935.20       55.89        0.02        0.41        0.00
  S12              RainBarrel           1      532.14       16.25        0.01        0.13        0.00
  S13              InfilTrench          1     3206.94       33.58        0.05        0.05        0.00
  S13              InfilTrench          1    14790.86      161.08        0.24        9.19        0.00
  S13              InfilTrench          1     1066.14       32.04        0.02        0.02        0.00
  S14              BioRetention         1      440.22       38.19        0.02        0.02        0.00
  S14              BioRetention         1      669.42       38.47        0.04        0.04        0.00
  S14              BioRetention         1      727.61       41.50        0.04        0.04        0.00
  S14              InfilTrench          1     1902.09      100.46        0.10        0.10        0.00
  S14              GreenRoof            1     1263.40       70.49        0.07        0.07        0.00
  S14              GreenRoof            1     1572.63       50.19        0.09        0.09        0.00
  S16              GreenRoof            1     9868.32      172.35        0.19        0.19        0.00
  S16              GreenRoof            1     1616.20       73.46        0.03        0.03        0.00
  S16              GreenRoof            1      424.95       34.34        0.01        0.01        0.00
  S16              GreenRoof            1     2377.80       57.86        0.05        0.05        0.00
  S16              GreenRoof            1     2772.70       55.82        0.05        0.05        0.00
  S16              GreenRoof            1     3222.48      111.25        0.06        0.06        0.00
  S16              GreenRoof            1     2249.47      146.41        0.04        0.04        0.00
  S16              GreenRoof            1     3180.31       34.57        0.06        0.06        0.00
  S16              BioRetention         1      756.93       15.69        0.01        0.20        0.00
  S16              BioRetention         1     1314.51      129.89        0.03        0.34        0.00
  S17              BioRetention         1     5380.20      180.72        0.27        0.27        0.00
  S17              BioRetention         1      934.95       41.69        0.05        0.05        0.00
  S17              BioRetention         1       48.62       11.86        0.00        0.02        0.00
  S17              BioRetention         1       48.42       10.24        0.00        0.02        0.00
  S17              BioRetention         1       48.61       10.42        0.00        0.01        0.00
  S17              BioRetention         1       49.26       10.42        0.00        0.01        0.00
  S17              BioRetention         1       48.68       11.84        0.00        0.02        0.00
  S21              GreenRoof            1     2662.40       53.92        1.28        1.28        0.00
  S21              GreenRoof            1     5974.22       65.43        2.88       21.17        0.00
  S22              BioRetention         1      621.03       31.03        0.01        0.14        0.00
  S22              BioRetention         1      595.94       38.78        0.01        0.23        0.00
  S22              BioRetention         1      583.98       24.72        0.01        0.32        0.00
  S22              InfilTrench          1     1634.08       15.14        0.03        0.78        0.00
  S24              BioRetention         1      868.23       43.70        0.06        0.06        0.00
  S26              RainGarden           1      681.48       27.76        0.02        0.13        0.00
  S26              BioRetention         1      400.64       39.03        0.01        0.12        0.00
  S3               GreenRoof            1    12457.27      128.12        0.77        0.77        0.00
  S31              BioRetention         1      217.86       27.13        0.05        1.89        0.00
  S31              BioRetention         1      216.38       26.72        0.05        2.02        0.00
  S32              BioRetention         1      414.36       10.91        0.01        0.45        0.00
  S32              BioRetention         1      619.17       11.59        0.02        0.34        0.00
  S32              GreenRoof            1     4872.57       64.48        0.16        0.16        0.00
  S32              GreenRoof            1     7316.91       70.59        0.24        0.24        0.00
  S34              BioRetention         1       84.95        5.56        0.00        0.00        0.00
  S34              VegSwale             1      174.92       10.51        0.01        0.01        0.00
  S34              GreenRoof            1     4776.31      149.16        0.20        0.20        0.00
  S34              BioRetention         1      959.58       57.30        0.04        0.04        0.00
  S34              BioRetention         1     1026.89       57.82        0.04        0.04        0.00
  S36              BioRetention         1      260.38       41.24        0.01        0.01        0.00
  S36              BioRetention         1      268.73       41.04        0.01        0.01        0.00
  S36              BioRetention         1       95.63       18.18        0.00        0.00        0.00
  S36              BioRetention         1       96.21       18.46        0.00        0.00        0.00
  S36              BioRetention         1      271.93        8.81        0.01        0.01        0.00
  S36              BioRetention         1      363.05       20.13        0.01        0.01        0.00
  S36              BioRetention         1      147.57        4.70        0.00        0.00        0.00
  S36              GreenRoof            1     4028.36      127.17        0.09        0.09        0.00
  S36              GreenRoof            1    11964.00      259.79        0.28        0.28        0.00
  S36              BioRetention         1     1974.00       44.89        0.05        0.63        0.00
  S36              GreenRoof            1     4275.29       48.10        0.10        0.10        0.00
  S37              RainBarrel           1       18.29        2.98        0.00        0.00        0.00
  S37              VegSwale             1      456.40       50.56        0.02        0.02        0.00
  S37              RainGarden           1      168.38        7.90        0.01        0.01        0.00
  S37              GreenRoof            1      770.82       24.91        0.03        0.03        0.00
  S38              BioRetention         1      557.13       60.68        0.03        0.67        0.00
  S38              BioRetention         1      459.70       46.50        0.02        0.94        0.00
  S4               RainGarden           1      648.45       35.22        0.12        1.04        0.00
  S4               RoofDisconnect       1     2142.62       94.51        0.41        0.41        0.00
  S40              GreenRoof            1     3846.35       87.58        0.07        1.11        0.00
  S40              VegSwale             1      505.26       28.61        0.01        0.44        0.00
  S40              GreenRoof            1     2472.03       87.36        0.04        0.04        0.00
  S40              GreenRoof            1      933.27       43.56        0.02        0.02        0.00
  S40              InfilTrench          1     2405.51       78.25        0.04        1.75        0.00
  S43              RainGarden           1      190.44       13.12        0.01        0.01        0.00
  S45              RainGarden           1       91.30        5.90        0.00        0.00        0.00
  S45              RainBarrel           1       16.74        2.69        0.00        0.00        0.00
  S45              VegSwale             1       85.70        5.31        0.00        0.00        0.00
  S45              RoofDisconnect       1     3183.69      331.61        0.12        0.12        0.00
  S47              BioRetention         1      470.18       16.01        0.05        0.05        0.00
  S47              BioRetention         1      522.78       17.20        0.05        0.05        0.00
  S47              BioRetention         1     1000.74       23.46        0.10        0.10        0.00
  S47              BioRetention         1     1012.22       24.83        0.11        0.10        0.00
  S47              InfilTrench          1     5441.69       33.39        0.57        0.57        0.00
  S47              InfilTrench          1     4038.45       35.92        0.42        0.42        0.00
  S47              BioRetention         1      399.91       20.69        0.04        0.04        0.00
  S47              BioRetention         1     1030.94       50.79        0.11        0.11        0.00
  S47              BioRetention         1      508.77       38.81        0.05        0.05        0.00
  S47              BioRetention         1      374.62       39.08        0.04        0.04        0.00
  S47              BioRetention         1     2633.65      103.85        0.27        5.05        0.00
  S47              BioRetention         1      162.57        6.46        0.02        0.40        0.00
  S47              BioRetention         1      198.67        7.42        0.02        0.38        0.00
  S47              BioRetention         1      199.66        7.46        0.02        0.38        0.00
  S47              BioRetention         1      200.02        7.51        0.02        0.38        0.00
  S47              BioRetention         1      144.62        5.90        0.02        0.38        0.00
  S47              BioRetention         1      207.99        9.17        0.02        0.39        0.00
  S48              GreenRoof            1    17987.05      293.61        0.97        0.97        0.00
  S48              RainBarrel           1      688.92       27.45        0.04        1.32        0.00
  S5               BioRetention         1     2484.59      168.58        0.06        0.06        0.00
  S5               BioRetention         1     2407.91       18.63        0.05        0.05        0.00
  S51              BioRetention         1      116.38        4.93        0.01        0.01        0.00
  S51              BioRetention         1       75.16        5.11        0.01        0.01        0.00
  S51              GreenRoof            1     5964.11       60.88        0.43        0.43        0.00
  S51              GreenRoof            1     7550.67      169.87        0.55        0.55        0.00
  S53              BioRetention         1      494.20       13.13        0.04        0.04        0.00
  S53              BioRetention         1      483.98       13.64        0.04        0.04        0.00
  S53              BioRetention         1      403.97       12.82        0.03        0.03        0.00
  S58              GreenRoof            1     8809.90      295.25        0.45        0.45        0.00
  S6               InfilTrench          1      556.43       99.90        0.01        0.53        0.00
  S60              VegSwale             1      310.82       11.92        0.01        0.01        0.00
  S62              GreenRoof            1     5610.49       86.73        0.26        0.26        0.00
  S63              BioRetention         1     1111.01       59.74        0.02        0.34        0.00
  S63              BioRetention         1      130.91       24.53        0.00        0.07        0.00
  S63              BioRetention         1      118.54       24.49        0.00        0.06        0.00
  S63              GreenRoof            1    21644.46      143.20        0.43        0.43        0.00
  S64              GreenRoof            1    14921.53      166.09        0.90        0.90        0.00
  S64              GreenRoof            1     3266.23       57.85        0.20        1.10        0.00
  S64              VegSwale             1      554.29       39.58        0.03        0.03        0.00
  S64              VegSwale             1      717.54       53.47        0.04        1.25        0.00
  S64              GreenRoof            1     5453.99      108.53        0.33        0.33        0.00
  S64              GreenRoof            1     7105.04       81.26        0.43        2.41        0.00
  S64              GreenRoof            1     1764.10       89.20        0.11        0.11        0.00
  S64              InfilTrench          1      721.74       20.66        0.04        0.04        0.00
  S65              GreenRoof            1     2529.42      110.49        0.30        0.29        0.00
  S65              GreenRoof            1     2924.99       68.71        0.34        0.34        0.00
  S67              RainGarden           1     5294.88       89.95        0.33        0.33        0.00
  S67              RainGarden           1     1421.57       34.36        0.09        0.63        0.00
  S67              RainGarden           1      535.44       42.02        0.03        0.42        0.00
  S67              RainGarden           1      392.47       32.43        0.02        0.19        0.00
  S67              RainGarden           1      408.09       25.88        0.03        0.14        0.00
  S73              RainBarrel           1     2348.53       86.23        1.41       23.57        0.00
  S73              GreenRoof            1    29183.74      201.74       17.49       17.49        0.00
  S75              BioRetention         1     1586.40      113.76        0.10        1.88        0.00
  S75              BioRetention         1     1152.85       60.85        0.08        1.29        0.00
  S75              BioRetention         1     1904.36       81.39        0.12        1.39        0.00
  S75              BioRetention         1     1452.53       94.37        0.09        1.58        0.00
  S75              BioRetention         1     2031.74      135.01        0.13        2.23        0.00
  S8               GreenRoof            1    14778.57      112.81        0.23        0.23        0.00
  S8               PermPave             1     4843.33      155.64        0.08        0.08        0.00
  S8               BioRetention         1     1388.67       21.83        0.02        0.26        0.00
  S8               BioRetention         1     5248.87      194.52        0.08        1.42        0.00
  S8               BioRetention         1      716.75       12.35        0.01        0.17        0.00
  S8               RoofDisconnect       1      765.56       18.85        0.01        0.06        0.00
  S8               RoofDisconnect       1     1267.01      107.21        0.02        0.04        0.00
  S8               RainGarden           1      212.81       16.13        0.00        0.02        0.00
  S8               InfilTrench          1      357.63       27.17        0.01        0.17        0.00
  S85              BioRetention         1      437.60       35.11        0.02        0.02        0.00
  S85              BioRetention         1      245.69       20.33        0.01        0.01        0.00
  S85              BioRetention         1      226.50       19.75        0.01        0.01        0.00
  S85              InfilTrench          1      467.98       51.73        0.02        1.57        0.00
  S86              GreenRoof            1    15669.80      296.60        0.78        0.78        0.00
  S88              GreenRoof            1    17068.16      228.47        2.35        2.35        0.00
  S90              GreenRoof            1    11626.02      134.24        0.41        0.41        0.00
  S90              GreenRoof            1     2080.49       80.26        0.07        0.07        0.00
  S90              VegSwale             1      483.22       31.65        0.02        0.83        0.00
  S90              VegSwale             1      479.47       34.11        0.02        0.90        0.00
  S90              BioRetention         1     1026.80      167.67        0.04        0.53        0.00
  S90              BioRetention         1      559.43       81.55        0.02        0.02        0.00
  S91              BioRetention         1      321.85       21.64        0.01        0.01        0.00
  S91              BioRetention         1      327.38       35.29        0.01        0.01        0.00
  S91              BioRetention         1      726.67       62.09        0.03        0.03        0.00
  S91              GreenRoof            1     4085.37      142.22        0.14        0.14        0.00
  S91              BioRetention         1     1914.53       58.56        0.07        0.61        0.00
  S91              VegSwale             1      130.77       21.36        0.00        0.01        0.00
  S91              VegSwale             1      176.16       26.12        0.01        0.01        0.00
  S91              VegSwale             1      155.78       26.06        0.01        0.01        0.00
  S91              BioRetention         1      732.54       38.80        0.03        0.31        0.00
  S91              BioRetention         1      321.17       42.08        0.01        0.15        0.00
  S91              BioRetention         1      682.21       34.88        0.02        0.80        0.00
  S91              BioRetention         1      722.47       35.61        0.03        0.47        0.00
  S91              BioRetention         1     1316.79      164.24        0.05        0.55        0.00
  S91              BioRetention         1      111.29       22.38        0.00        2.81        0.00
  S92              BioRetention         1     4256.68       82.93        0.38        2.75        0.00
  S92              BioRetention         1     5149.72      203.81        0.46        8.73        0.00
  S95              BioRetention         1      855.39       39.15        0.04        0.04        0.00
  S95              BioRetention         1      406.23       26.64        0.02        0.02        0.00
  S95              BioRetention         1     1362.39       70.60        0.06        1.30        0.00
  S95              BioRetention         1     4847.11       89.69        0.22        4.35        0.00
  S95              BioRetention         1     4644.13      208.32        0.21        3.65        0.00
  
  
  ************
  Node Summary
  ************
                                           Invert      Max.    Ponded    External
  Name                 Type                 Elev.     Depth      Area    Inflow  
  -------------------------------------------------------------------------------
  J1                   JUNCTION            142.05     10.45       0.0
  J10                  JUNCTION              1.00      4.00       0.0
  J105                 JUNCTION             35.00      5.00       0.0
  J116                 JUNCTION             29.00      5.00       0.0
  J119                 JUNCTION             23.40      5.00       0.0
  J128                 JUNCTION              3.37     10.00       0.0
  J130                 JUNCTION             -4.00      6.92       0.0
  J131                 JUNCTION             -3.04      9.00       0.0
  J136                 JUNCTION             -0.27      6.00       0.0
  J138                 JUNCTION              1.07      9.00       0.0
  J141                 JUNCTION              3.00      5.00       0.0
  J157                 JUNCTION             -0.50      7.00       0.0
  J163                 JUNCTION              4.60      5.00       0.0
  J165                 JUNCTION             17.90      5.00       0.0
  J171                 JUNCTION              1.69      5.00       0.0
  J177                 JUNCTION             22.70      5.00       0.0
  J182                 JUNCTION             11.90      5.67       0.0
  J191                 JUNCTION              4.26      5.00       0.0
  J2                   JUNCTION             14.01      5.00       0.0
  J204                 JUNCTION              7.14      5.00       0.0
  J208                 JUNCTION             40.00      5.00       0.0
  J211                 JUNCTION              1.69      9.00       0.0
  J227                 JUNCTION              8.68      7.00       0.0
  J231                 JUNCTION             16.89      5.00       0.0
  J232                 JUNCTION             14.00      5.00       0.0
  J234                 JUNCTION              5.20      5.00       0.0
  J238                 JUNCTION              8.21      5.00       0.0
  J240                 JUNCTION              7.00      5.00       0.0
  J245                 JUNCTION              0.00      5.00       0.0
  J253                 JUNCTION             44.86      9.00       0.0
  J260                 JUNCTION             87.20      6.30       0.0
  J266                 JUNCTION             91.50     13.50       0.0
  J268                 JUNCTION            109.90      5.00       0.0
  J27                  JUNCTION             15.50      5.00       0.0
  J273                 JUNCTION            121.61      6.89       0.0
  J278                 JUNCTION             71.50      9.00       0.0
  J280                 JUNCTION             76.80      9.00       0.0
  J3                   JUNCTION              1.00      6.92       0.0
  J328                 JUNCTION             73.00      5.00       0.0
  J329                 JUNCTION             58.00      9.00       0.0
  J33                  JUNCTION              3.30      5.00       0.0
  J338                 JUNCTION             50.00     11.00       0.0
  J34                  JUNCTION             15.03      5.00       0.0
  J361                 JUNCTION             37.30      9.00       0.0
  J366                 JUNCTION             43.60      9.00       0.0
  J385                 JUNCTION             62.60     12.00       0.0
  J4                   JUNCTION             -1.20      3.67       0.0
  J413                 JUNCTION            100.50      7.00       0.0
  J42                  JUNCTION              4.60      5.00       0.0
  J421                 JUNCTION             42.00     12.00       0.0    Yes
  J433                 JUNCTION             57.22     12.00       0.0
  J437                 JUNCTION             30.00     11.00       0.0
  J438                 JUNCTION             31.20     11.00       0.0
  J45                  JUNCTION             23.00      5.00       0.0
  J450                 JUNCTION             55.00     12.00       0.0
  J456                 JUNCTION             30.00      7.00       0.0
  J46                  JUNCTION              8.85      5.00       0.0
  J460                 JUNCTION             34.02     15.00       0.0
  J461                 JUNCTION             26.16      9.00       0.0
  J471                 JUNCTION             52.50      5.00       0.0
  J480                 JUNCTION             38.50      7.00       0.0
  J484                 JUNCTION             20.25     11.00       0.0
  J49                  JUNCTION             29.18      5.00       0.0
  J491                 JUNCTION             23.36     11.00       0.0
  J492                 JUNCTION             46.46     15.00       0.0
  J5                   JUNCTION             -1.00      3.42       0.0
  J50                  JUNCTION             19.13      5.00       0.0
  J506                 JUNCTION             30.14      7.00       0.0
  J507                 JUNCTION             14.21     13.00       0.0
  J509                 JUNCTION             22.50     11.00       0.0
  J509-S               JUNCTION             20.00      5.00       0.0
  J511                 JUNCTION             12.23     15.00       0.0
  J512                 JUNCTION             13.20     13.50       0.0
  J534                 JUNCTION             13.40     10.00       0.0    Yes
  J539                 JUNCTION             15.26      5.00       0.0
  J541                 JUNCTION              2.71      6.92       0.0
  J548                 JUNCTION             18.07      5.00       0.0
  J556                 JUNCTION              0.12     15.00       0.0
  J567                 JUNCTION             84.97      5.00       0.0
  J568                 JUNCTION             75.00     10.00       0.0
  J571                 JUNCTION             78.59     10.00       0.0
  J576                 JUNCTION             24.10     11.00       0.0
  J578                 JUNCTION             23.49     10.00       0.0
  J586                 JUNCTION             25.93      7.00       0.0
  J587                 JUNCTION              2.30      5.00       0.0
  J592                 JUNCTION             31.48      5.00       0.0
  J60                  JUNCTION              3.50      5.00       0.0
  J609                 JUNCTION             68.08      5.00       0.0
  J619                 JUNCTION             86.93      5.00       0.0
  J62                  JUNCTION              1.73      5.00       0.0
  J620                 JUNCTION             65.00     12.00       0.0
  J624                 JUNCTION             64.40     12.00       0.0
  J632                 JUNCTION             36.48      5.00       0.0
  J637                 JUNCTION             35.51      9.00       0.0
  J640                 JUNCTION             30.00      9.00       0.0
  J65                  JUNCTION             12.23     10.00       0.0
  J659                 JUNCTION             37.81      5.00       0.0
  J672                 JUNCTION             21.00     11.00       0.0
  J675                 JUNCTION              4.53     15.00       0.0
  J686                 JUNCTION             10.00      5.00       0.0
  J694                 JUNCTION              4.50     10.00       0.0
  J695                 JUNCTION              6.50     11.00       0.0
  J7                   JUNCTION              2.00      5.92       0.0
  J71                  JUNCTION              0.50      5.00       0.0
  J712                 JUNCTION             35.00     12.00       0.0
  J714                 JUNCTION             10.00      5.42       0.0
  J72                  JUNCTION             26.10      5.00       0.0
  J722                 JUNCTION             14.68      5.00       0.0
  J732                 JUNCTION             -0.55      5.42       0.0
  J733                 JUNCTION              5.55      5.00       0.0
  J748                 JUNCTION              5.23      7.00       0.0
  J749                 JUNCTION              3.39      9.00       0.0
  J751                 JUNCTION              3.42      7.00       0.0
  J756                 JUNCTION             14.91      6.92       0.0
  J758                 JUNCTION             -1.51      7.00       0.0
  J760                 JUNCTION              0.41      5.00       0.0
  J761                 JUNCTION              0.18      9.00       0.0
  J762                 JUNCTION             13.70      6.00       0.0
  J764                 JUNCTION             -2.58      7.00       0.0
  J765                 JUNCTION             -1.15      5.00       0.0
  J772                 JUNCTION             16.14      5.00       0.0
  J775                 JUNCTION              6.00      5.00       0.0
  J78                  JUNCTION             18.00      5.00       0.0
  J782                 JUNCTION             21.00     11.00       0.0
  J786                 JUNCTION              0.86      5.00       0.0
  J787                 JUNCTION             89.53      6.00       0.0
  J789                 JUNCTION             22.00     10.00       0.0
  J792                 JUNCTION             21.90     11.00       0.0
  J799                 JUNCTION             -3.53      7.00       0.0
  J8                   JUNCTION              1.00      6.92       0.0
  J80                  JUNCTION              1.00      5.00       0.0
  J801                 JUNCTION             83.50      9.00       0.0    Yes
  J88                  JUNCTION              3.24      5.00       0.0
  J90                  JUNCTION              4.27      5.00       0.0
  J139                 OUTFALL              -5.30      2.92       0.0
  J538                 OUTFALL               2.70      3.42       0.0
  J798                 OUTFALL              -4.00      6.25       0.0
  OF1                  OUTFALL              19.90      2.00       0.0
  Out1                 OUTFALL               8.30      4.92       0.0
  Out10                OUTFALL               5.00      0.00       0.0
  Out106               OUTFALL               0.29      2.92       0.0
  Out11                OUTFALL               9.00      0.00       0.0
  Out112               OUTFALL              -6.93      4.92       0.0
  Out122               OUTFALL              -3.41      3.92       0.0
  Out123               OUTFALL               1.32      5.00       0.0
  Out126               OUTFALL              -3.24      7.25       0.0
  Out129               OUTFALL               2.98      2.67       0.0
  Out13                OUTFALL              13.00      0.00       0.0
  Out134               OUTFALL              -1.75      3.42       0.0
  Out135               OUTFALL              -2.00      3.67       0.0
  Out14                OUTFALL               8.50      0.00       0.0
  Out16                OUTFALL               0.00      5.92       0.0
  Out17                OUTFALL               6.50      0.00       0.0
  Out18                OUTFALL              16.18      0.00       0.0
  Out19                OUTFALL              -2.00      6.67       0.0
  Out2                 OUTFALL               0.91      6.92       0.0
  Out20                OUTFALL               4.50      0.00       0.0
  Out21                OUTFALL               7.50      0.00       0.0
  Out22                OUTFALL              10.00      0.00       0.0
  Out23                OUTFALL              20.50      0.00       0.0
  Out24                OUTFALL              17.00      0.00       0.0
  Out25                OUTFALL               7.00      0.00       0.0
  Out26                OUTFALL               6.00      0.00       0.0
  Out28                OUTFALL               5.50      0.00       0.0
  Out29                OUTFALL               3.50      0.00       0.0
  Out3                 OUTFALL              -5.00      6.92       0.0
  Out32                OUTFALL               5.50      0.00       0.0
  Out33                OUTFALL               1.00      0.00       0.0
  Out34                OUTFALL               9.50      0.00       0.0
  Out35                OUTFALL               1.50      0.00       0.0
  Out37                OUTFALL              67.54      4.42       0.0
  Out4                 OUTFALL               0.00      5.00       0.0
  Out47                OUTFALL              -1.00      2.92       0.0
  Out5                 OUTFALL              87.00      0.00       0.0
  Out59                OUTFALL               0.90      3.42       0.0
  Out6                 OUTFALL               2.50      0.00       0.0
  Out63                OUTFALL               0.65      3.42       0.0
  Out64                OUTFALL               0.00      5.00       0.0
  Out67                OUTFALL               0.00      1.92       0.0
  Out68                OUTFALL              -0.28      5.67       0.0
  Out69                OUTFALL               0.00      4.42       0.0
  Out7                 OUTFALL               0.50      0.00       0.0
  Out73                OUTFALL               0.00      9.25       0.0
  Out76                OUTFALL              -1.00      2.59       0.0
  Out79                OUTFALL              -1.50      3.67       0.0
  Out8                 OUTFALL               5.00      0.00       0.0
  Out86                OUTFALL               0.00      2.42       0.0
  Out87                OUTFALL               0.00      6.92       0.0
  Out9                 OUTFALL               9.50      0.00       0.0
  J105-S               STORAGE              41.50      2.00       0.0
  J10-S                STORAGE               6.00      2.00       0.0
  J116-S               STORAGE              35.00      2.00       0.0
  J119-S               STORAGE              31.50      2.00       0.0
  J128-S               STORAGE               5.00      2.50       0.0
  J130-S               STORAGE               0.00      2.00       0.0
  J131-S               STORAGE               4.50      2.00       0.0
  J136-S               STORAGE               4.00      2.00       0.0
  J138-S               STORAGE               5.00      2.00       0.0
  J141-S               STORAGE              10.00      2.00       0.0
  J157-S               STORAGE               5.00      2.00       0.0
  J163-S               STORAGE              12.00      2.00       0.0
  J165-S               STORAGE              25.00      2.00       0.0
  J171-S               STORAGE              12.50      2.00       0.0
  J177-S               STORAGE              26.50      2.00       0.0
  J182-S               STORAGE              21.00      2.00       0.0
  J191-S               STORAGE               9.00      2.00       0.0
  J1-S                 STORAGE             152.50      2.00       0.0
  J204-S               STORAGE              18.00      2.00       0.0
  J208-S               STORAGE              46.50      2.00       0.0
  J211-S               STORAGE               5.00      3.00       0.0
  J227-S               STORAGE              15.68      2.00       0.0
  J231-S               STORAGE              21.89      2.00       0.0
  J232-S               STORAGE              19.50      2.00       0.0
  J234-S               STORAGE              24.00      2.00       0.0
  J238-S               STORAGE              22.00      2.00       0.0
  J240-S               STORAGE              13.00      2.50       0.0
  J245-S               STORAGE              10.00      2.00       0.0
  J253-S               STORAGE              52.00      2.00       0.0
  J260-S               STORAGE              93.50      2.00       0.0
  J266-S               STORAGE             105.00      4.50       0.0
  J268-S               STORAGE             152.00      2.00       0.0
  J273-S               STORAGE             128.50      2.00       0.0
  J278-S               STORAGE              78.00      3.00       0.0
  J27-S                STORAGE              16.00      4.00       0.0
  J280-S               STORAGE              79.00      3.50       0.0
  J328-S               STORAGE              76.00      3.00       0.0
  J329-S               STORAGE              73.00      2.00       0.0
  J338-S               STORAGE              55.50      2.50       0.0
  J33-S                STORAGE               6.00      2.00       0.0
  J34-S                STORAGE              21.00      2.00       0.0
  J361-S               STORAGE              48.00      2.00       0.0
  J366-S               STORAGE              50.50      2.00       0.0
  J385-S               STORAGE              67.00      2.00       0.0
  J3-S                 STORAGE               7.00      2.00       0.0
  J413-S               STORAGE             103.50      2.00       0.0
  J421-S               STORAGE              45.50      2.00       0.0
  J42-S                STORAGE              28.50      2.00       0.0
  J433-S               STORAGE              72.50      2.00       0.0
  J437-S               STORAGE              36.00      2.00       0.0
  J438-S               STORAGE              35.50      2.00       0.0
  J450-S               STORAGE              63.00      2.00       0.0
  J456-S               STORAGE              39.00      2.50       0.0
  J45-S                STORAGE              24.00      2.00       0.0
  J460-S               STORAGE              58.00      2.00       0.0
  J461-S               STORAGE              38.00      2.00       0.0
  J46-S                STORAGE              17.50      2.00       0.0
  J471-S               STORAGE              58.50      2.00       0.0
  J480-S               STORAGE              45.50      2.00       0.0
  J484-S               STORAGE              31.00      5.50       0.0
  J491-S               STORAGE              33.00      6.50       0.0
  J492-S               STORAGE              60.00      2.00       0.0
  J49-S                STORAGE              31.00      2.00       0.0
  J4-S                 STORAGE               4.50      2.00       0.0
  J506-S               STORAGE              39.00      3.00       0.0
  J507-S               STORAGE              28.00      2.00       0.0
  J50-S                STORAGE              20.00      2.00       0.0
  J512-S               STORAGE              27.00      5.50       0.0
  J534-S               STORAGE              24.50      4.00       0.0
  J539-S               STORAGE              20.00      2.00       0.0
  J541-S               STORAGE              12.00      2.00       0.0
  J548-S               STORAGE              22.50      2.00       0.0
  J556-S               STORAGE              16.50      2.00       0.0
  J567-S               STORAGE              94.50      5.50       0.0
  J568-S               STORAGE              86.50      2.00       0.0
  J571-S               STORAGE             113.50      2.00       0.0
  J576-S               STORAGE              33.00      2.00       0.0
  J578-S               STORAGE              31.00      2.00       0.0
  J586-S               STORAGE              30.50      2.00       0.0
  J587-S               STORAGE               7.50      2.00       0.0
  J592-S               STORAGE              32.00      2.00       0.0
  J5-S                 STORAGE               7.50      2.00       0.0
  J609-S               STORAGE              96.50      2.00       0.0
  J60-S                STORAGE               3.55      2.00       0.0
  J619-S               STORAGE             102.00      2.00       0.0
  J620-S               STORAGE              68.00      4.00       0.0
  J624-S               STORAGE              69.50      5.00       0.0
  J62-S                STORAGE               2.00      2.00       0.0
  J632-S               STORAGE              48.00      2.00       0.0
  J637-S               STORAGE              40.50      2.00       0.0
  J640-S               STORAGE              38.00      2.00       0.0
  J659-S               STORAGE              51.50      2.50       0.0
  J672-S               STORAGE              21.00      2.00       0.0
  J675-S               STORAGE              20.00      2.00       0.0
  J686-S               STORAGE              15.00      2.00       0.0
  J694-S               STORAGE               6.50      2.50       0.0
  J695-S               STORAGE               8.00      3.00       0.0
  J712-S               STORAGE              58.50      2.00       0.0
  J714-S               STORAGE              11.00      2.00       0.0
  J71-S                STORAGE               8.50      2.00       0.0
  J722-S               STORAGE              21.50      2.00       0.0
  J72-S                STORAGE              36.50      2.00       0.0
  J732-S               STORAGE               3.00      2.00       0.0
  J733-S               STORAGE              10.00      2.00       0.0
  J748-S               STORAGE              11.00      2.00       0.0
  J749-S               STORAGE               8.00      2.00       0.0
  J751-S               STORAGE              13.00      2.00       0.0
  J756-S               STORAGE              28.50      2.00       0.0
  J758-S               STORAGE               7.50      2.00       0.0
  J760-S               STORAGE               9.50      2.00       0.0
  J761-S               STORAGE               1.00      2.00       0.0
  J762-S               STORAGE              27.00      2.00       0.0
  J764-S               STORAGE               2.00      2.00       0.0
  J765-S               STORAGE               5.00      2.00       0.0
  J772-S               STORAGE              22.00      2.00       0.0
  J782-S               STORAGE              24.00      2.00       0.0
  J787-S               STORAGE             114.00      2.00       0.0
  J789-S               STORAGE              20.00      2.00       0.0
  J78-S                STORAGE              23.00      2.50       0.0
  J792-S               STORAGE              22.00      2.00       0.0
  J799-S               STORAGE               0.50      2.00       0.0
  J7-S                 STORAGE              13.00      2.00       0.0
  J801-S               STORAGE              87.00      4.00       0.0
  J80-S                STORAGE              16.00      2.00       0.0
  J88-S                STORAGE               8.00      2.00       0.0
  J8-S                 STORAGE               9.50      2.00       0.0
  
  
  ************
  Link Summary
  ************
  Name             From Node        To Node          Type            Length    %Slope Roughness
  ---------------------------------------------------------------------------------------------
  C1               J2               Out1             CONDUIT          285.6    1.9998    0.0130
  C10              J4               Out79            CONDUIT          111.0    0.2703    0.0130
  C102             J534             J511             CONDUIT          957.7    0.1222    0.0120
  C102-S           J534-S           J509-S           CONDUIT          957.7    0.4699    0.0160
  C103             J511             J675             CONDUIT         1719.7    0.4478    0.0120
  C105             J480             J534             CONDUIT         1494.3    1.6800    0.0120
  C105-S           J480-S           J534-S           CONDUIT         1494.3    1.4055    0.0160
  C11              J5               Out134           CONDUIT           62.0    1.2098    0.0120
  C111             J491             J484             CONDUIT          187.6    1.6582    0.0130
  C111-S           J491-S           J484-S           CONDUIT          187.6    1.0663    0.0160
  C113             J484             J507             CONDUIT          790.9    0.7637    0.0130
  C113-S           J484-S           J507-S           CONDUIT          790.9    0.3793    0.0160
  C13              J7               Out16            CONDUIT           53.5    3.7409    0.0110
  C131             J760             J765             CONDUIT          709.8    0.2198    0.0130
  C131-S           J760-S           J765-S           CONDUIT          709.8    0.6340    0.0160
  C132             J765             Out135           CONDUIT          510.5    0.1665    0.0130
  C14              J8               Out2             CONDUIT           50.0    0.1800    0.0120
  C141             J171             J4               CONDUIT          400.9    0.7209    0.0130
  C141-S           J171-S           J4-S             CONDUIT          400.9    1.9959    0.0160
  C159             J722             J760             CONDUIT          535.9    2.6640    0.0130
  C159-S           J722-S           J760-S           CONDUIT          535.9    2.2400    0.0160
  C163             J714             J732             CONDUIT         1158.2    0.9109    0.0130
  C163-S           J714-S           J732-S           CONDUIT         1158.2    0.6907    0.0160
  C164             J732             Out76            CONDUIT          309.3    0.1455    0.0130
  C168             J733             J5               CONDUIT          432.8    1.5134    0.0120
  C168-S           J733-S           J5-S             CONDUIT          432.8    0.5776    0.0160
  C182             J792             J672             CONDUIT          350.4    0.2569    0.0130
  C182-S           J792-S           J672-S           CONDUIT          350.4    0.2854    0.0160
  C186             J509             J782             CONDUIT          837.3    0.1791    0.0130
  C187             J782             J672             CONDUIT          365.3    0.0100    0.0130
  C187-S           J782-S           J672-S           CONDUIT          365.3    0.8213    0.0160
  C190             J507             J512             CONDUIT          214.7    0.4705    0.0120
  C190-S           J507-S           J512-S           CONDUIT          214.7    0.4659    0.0160
  C191             J512             J534             CONDUIT          696.9   -0.0287    0.0130
  C191-S           J512-S           J509-S           CONDUIT          696.9    1.0045    0.0160
  C2               J1               J260             CONDUIT         1696.9    3.2341    0.0130
  C21              J260             J801             CONDUIT          391.9    0.9441    0.0120
  C211             J712             J437             CONDUIT          673.4    0.7426    0.0130
  C211-S           J712-S           J437-S           CONDUIT          673.4    3.3433    0.0160
  C21-S            J260-S           J801-S           CONDUIT          391.9    1.6586    0.0160
  C226             J506             J461             CONDUIT          481.4    0.8267    0.0130
  C226-S           J506-S           J461-S           CONDUIT          481.4    0.2077    0.0160
  C227             J461             J491             CONDUIT          517.7    0.5409    0.0130
  C227-S           J461-S           J491-S           CONDUIT          517.7    0.9659    0.0160
  C229             J456             J461             CONDUIT          658.5    0.5832    0.0130
  C229-S           J456-S           J461-S           CONDUIT          658.5    0.1519    0.0160
  C23              J801             J280             CONDUIT          854.4    0.7842    0.0090
  C236             J471             J460             CONDUIT         1055.9    1.2767    0.0130
  C236-S           J471-S           J460-S           CONDUIT         1055.9    0.0474    0.0160
  C23-S            J801-S           J280-S           CONDUIT          854.4    0.9363    0.0160
  C240             J460             J461             CONDUIT          391.9    2.0061    0.0130
  C249             J433             J450             CONDUIT          557.8    0.3980    0.0090
  C249-S           J433-S           J450-S           CONDUIT          557.8    1.7035    0.0160
  C251             J450             J421             CONDUIT          704.1    1.8467    0.0090
  C251-S           J450-S           J421-S           CONDUIT          704.1    2.4863    0.0160
  C26              J280             J278             CONDUIT          326.6    1.6231    0.0130
  C260             J492             J484             CONDUIT          515.4    5.0922    0.0120
  C260-S           J492-S           J484-S           CONDUIT          515.4    5.6358    0.0160
  C26-S            J280-S           J278-S           CONDUIT          326.6    0.3062    0.0160
  C27              J278             J624             CONDUIT          616.8    1.1512    0.0130
  C274             J659             J491             CONDUIT         1608.5    0.8984    0.0130
  C274-S           J659-S           J491-S           CONDUIT         1608.5    1.1502    0.0160
  C279             J328             J329             CONDUIT         1279.7    1.1722    0.0130
  C279-S           J328-S           J329-S           CONDUIT         1279.7    0.2344    0.0160
  C27-S            J278-S           J329-S           CONDUIT          616.8    0.8107    0.0160
  C282             J338             J253             CONDUIT         1132.0    0.4541    0.0090
  C292             J329             J338             CONDUIT         1257.0    0.6364    0.0090
  C292-S           J329-S           J338-S           CONDUIT         1257.0    1.3923    0.0160
  C2-S             J1-S             J260-S           CONDUIT         1696.9    3.4790    0.0160
  C3               J756             J3               CONDUIT         2384.4    0.5834    0.0120
  C301             J385             J421             CONDUIT         1430.9    1.4398    0.0120
  C301-S           J385-S           J421-S           CONDUIT         1430.9    1.5027    0.0160
  C314             J632             J592             CONDUIT          962.1    0.5197    0.0130
  C314-S           J632-S           J592-S           CONDUIT          962.1    1.6633    0.0160
  C317             J592             J586             CONDUIT          335.2    1.6558    0.0120
  C317-S           J592-S           J586-S           CONDUIT          335.2    0.4474    0.0160
  C319             J586             J789             CONDUIT          448.0    0.8773    0.0130
  C319-S           J586-S           J789-S           CONDUIT          448.0    2.3444    0.0160
  C321             J789             J748             CONDUIT         1545.5    1.0852    0.0130
  C321-S           J789-S           J748-S           CONDUIT         1545.5    0.5824    0.0160
  C325             J748             J749             CONDUIT          643.5    0.2859    0.0130
  C325-S           J748-S           J749-S           CONDUIT          643.5    0.4662    0.0160
  C327             J749             J211             CONDUIT          245.5    0.6924    0.0130
  C327-S           J749-S           J211-S           CONDUIT          245.5    1.2219    0.0160
  C328             J211             J761             CONDUIT          405.6    0.3723    0.0120
  C328-S           J211-S           J761-S           CONDUIT          405.6    0.9862    0.0160
  C329             J761             Out126           CONDUIT          664.0    0.5151    0.0130
  C334             J191             Out86            CONDUIT         1133.3    0.3759    0.0130
  C338             J49              J50              CONDUIT          439.8    2.2856    0.0130
  C338-S           J49-S            J50-S            CONDUIT          439.8    2.5018    0.0160
  C34              J268             J266             CONDUIT         1388.9    1.3249    0.0130
  C340             J50              J749             CONDUIT          648.1    2.4294    0.0130
  C340-S           J50-S            J749-S           CONDUIT          648.1    1.8519    0.0160
  C34-S            J268-S           J266-S           CONDUIT         1388.9    3.3858    0.0160
  C351             J204             J191             CONDUIT          632.8    0.4552    0.0130
  C351-S           J204-S           J191-S           CONDUIT          632.8    1.4225    0.0160
  C355             J764             J799             CONDUIT          542.5    0.1751    0.0130
  C355-S           J764-S           J799-S           CONDUIT          542.5    0.2765    0.0160
  C361             J751             J758             CONDUIT          309.6    1.5926    0.0130
  C361-S           J751-S           J758-S           CONDUIT          309.6    1.7768    0.0160
  C362             J758             J764             CONDUIT          732.6    0.1461    0.0130
  C362-S           J758-S           J764-S           CONDUIT          732.6    0.7508    0.0160
  C368             J786             Out106           CONDUIT          289.1    0.1972    0.0120
  C37              J266             J260             CONDUIT          885.9    0.4854    0.0130
  C37-S            J266-S           J260-S           CONDUIT          885.9    1.2982    0.0160
  C382             J686             J695             CONDUIT          516.2    0.6781    0.0130
  C382-S           J686-S           J695-S           CONDUIT          516.2    1.3563    0.0160
  C397             J539             J538             CONDUIT          296.8    4.2359    0.0130
  C3-S             J756-S           J3-S             CONDUIT         2384.0    0.9019    0.0160
  C4               J775             Out4             CONDUIT          176.2    3.4080    0.0130
  C417             J548             J772             CONDUIT          221.5    0.8714    0.0120
  C417-S           J548-S           J772-S           CONDUIT          221.5    0.2257    0.0160
  C418             J772             J539             CONDUIT          345.6    0.2546    0.0160
  C418-S           J772-S           J539-S           CONDUIT          345.6    0.5787    0.0160
  C422             J762             J7               CONDUIT          240.5    4.8706    0.0110
  C422-S           J762-S           J7-S             CONDUIT          240.5    5.8311    0.0160
  C449             J413             J421             CONDUIT         2043.7    2.8636    0.0110
  C449-S           J413-S           J421-S           CONDUIT         2043.7    2.8391    0.0160
  C462             J620             J385             CONDUIT          446.7    0.5373    0.0130
  C462-S           J620-S           J385-S           CONDUIT          446.7    0.2239    0.0160
  C463             J624             J620             CONDUIT          443.8   -0.1352    0.0120
  C463-S           J624-S           J620-S           CONDUIT          443.8    0.3380    0.0160
  C473             J787             J567             CONDUIT          593.4    0.7685    0.0160
  C473-S           J787-S           J567-S           CONDUIT          593.4    3.2881    0.0160
  C474             J567             J568             CONDUIT          463.2    2.1529    0.0110
  C474-S           J567-S           J568-S           CONDUIT          463.2    1.7273    0.0160
  C476             J568             Out37            CONDUIT          325.2    2.2949    0.0110
  C478             J571             J568             CONDUIT          297.1    1.2084    0.0110
  C478-S           J571-S           J568-S           CONDUIT          297.1    9.1250    0.0160
  C5               J130             Out3             CONDUIT          123.0    0.8130    0.0130
  C509-S           J509-S           OF1              CONDUIT           50.0    0.2000    0.0160
  C530             J361             J637             CONDUIT          728.4    0.2457    0.0110
  C530-S           J361-S           J637-S           CONDUIT          728.4    1.0297    0.0160
  C532             J366             J361             CONDUIT          932.5    0.6756    0.0110
  C532-S           J366-S           J361-S           CONDUIT          932.5    0.2681    0.0160
  C548             J640             J576             CONDUIT          882.6    0.6685    0.0130
  C548-S           J640-S           J576-S           CONDUIT          882.6    0.5665    0.0160
  C549             J576             J578             CONDUIT          238.1    0.2562    0.0130
  C549-S           J576-S           J578-S           CONDUIT          238.1    0.8401    0.0160
  C550             J619             J609             CONDUIT          465.6    4.0516    0.0130
  C550-S           J619-S           J609-S           CONDUIT          465.6    1.1813    0.0160
  C551             J609             J578             CONDUIT         1018.1    4.3839    0.0130
  C551-S           J609-S           J578-S           CONDUIT         1018.1    6.4469    0.0160
  C556             J637             J640             CONDUIT          719.3    0.7660    0.0130
  C556-S           J637-S           J640-S           CONDUIT          719.3    0.3476    0.0160
  C576             J578             J789             CONDUIT         1049.1    0.1420    0.0090
  C576-S           J578-S           J789-S           CONDUIT         1049.1    1.0486    0.0160
  C602             J208             J116             CONDUIT          937.5    1.1734    0.0160
  C602-S           J208-S           J116-S           CONDUIT          937.5    1.2268    0.0160
  C610             J62              Out63            CONDUIT          206.0    0.5244    0.0090
  C638             J138             J131             CONDUIT          575.6    0.5403    0.0130
  C638-S           J138-S           J131-S           CONDUIT          575.6    0.0869    0.0160
  C65              J421             J438             CONDUIT          991.9    1.0889    0.0130
  C650             J60              J62              CONDUIT          365.4    0.4845    0.0130
  C650-S           J60-S            J62-S            CONDUIT          365.4    0.4243    0.0160
  C659             J587             J10              CONDUIT          674.4    0.1928    0.0130
  C659-S           J587-S           J10-S            CONDUIT          674.0    0.2226    0.0160
  C65-S            J421-S           J438-S           CONDUIT          991.9    1.0083    0.0160
  C677             J105             J116             CONDUIT          568.2    1.0559    0.0130
  C677-S           J105-S           J116-S           CONDUIT          568.2    1.1439    0.0160
  C68              J438             J437             CONDUIT          354.6    0.3384    0.0130
  C681             J119             J131             CONDUIT         1100.0    2.4043    0.0130
  C681-S           J119-S           J131-S           CONDUIT         1100.0    2.4553    0.0160
  C685             J131             J130             CONDUIT          280.4    0.3423    0.0130
  C685-S           J131-S           J130-S           CONDUIT          280.4    1.6048    0.0160
  C686             J136             J139             CONDUIT          288.8    1.7419    0.0130
  C687             J141             J136             CONDUIT          456.6    0.7162    0.0130
  C687-S           J141-S           J136-S           CONDUIT          456.6    1.3142    0.0160
  C68-S            J438-S           J437-S           CONDUIT          354.6   -0.1410    0.0160
  C69              J437             J509             CONDUIT         1869.7    0.4011    0.0090
  C69-S            J437-S           J509-S           CONDUIT         1869.7    0.8558    0.0160
  C6-S             J338-S           J253-S           CONDUIT          458.5    0.7633    0.0160
  C707             J157             Out112           CONDUIT          211.5    3.0413    0.0130
  C708             J163             J157             CONDUIT          421.3    1.2106    0.0130
  C708-S           J163-S           J157-S           CONDUIT          421.3    1.6617    0.0160
  C713             J65              Out64            CONDUIT          294.3    4.1592    0.0130
  C719             J71              Out67            CONDUIT          266.9    0.1874    0.0130
  C725             J165             J182             CONDUIT          388.5    1.5444    0.0130
  C725-S           J165-S           J182-S           CONDUIT          388.5    1.0295    0.0160
  C728             J72              J165             CONDUIT          348.4    2.3541    0.0160
  C728-S           J72-S            J165-S           CONDUIT          348.4    3.3023    0.0160
  C729             J177             J182             CONDUIT          303.9    3.5560    0.0130
  C729-S           J177-S           J182-S           CONDUIT          303.9    1.8101    0.0160
  C732             J182             Out68            CONDUIT         1688.2    0.7215    0.0120
  C734             J80              J71              CONDUIT          159.5    0.3135    0.0120
  C734-S           J80-S            J71-S            CONDUIT          159.5    4.7074    0.0160
  C737             J88              Out69            CONDUIT          261.6    1.2384    0.0110
  C74              J672             J695             CONDUIT          982.1    1.4766    0.0110
  C740             J78              J88              CONDUIT          365.5    3.3204    0.0120
  C740-S           J78-S            J88-S            CONDUIT          365.5    4.1072    0.0160
  C742             J27              J232             CONDUIT          430.1    0.2720    0.0110
  C742-S           J27-S            J232-S           CONDUIT          430.1   -0.8138    0.0160
  C744             J45              J27              CONDUIT          477.0    1.2998    0.0120
  C744-S           J45-S            J27-S            CONDUIT          477.0    1.6772    0.0160
  C74-S            J672-S           J695-S           CONDUIT          982.1    1.3238    0.0160
  C752             J234             J33              CONDUIT          822.2    0.2311    0.0160
  C752-S           J234-S           J33-S            CONDUIT          822.2    2.1898    0.0160
  C753             J33              Out122           CONDUIT          192.8    3.4824    0.0160
  C756             J42              J33              CONDUIT          155.7    0.8350    0.0160
  C756-S           J42-S            J33-S            CONDUIT          155.7   14.6042    0.0160
  C758             J232             J227             CONDUIT          314.7    1.6908    0.0160
  C758-S           J232-S           J227-S           CONDUIT          314.7    1.2140    0.0160
  C759             J231             J232             CONDUIT          354.2    0.8158    0.0160
  C759-S           J231-S           J232-S           CONDUIT          354.2    0.6747    0.0160
  C760             J227             Out129           CONDUIT          405.1    1.4071    0.0120
  C761             J34              J227             CONDUIT          112.3    1.5580    0.0120
  C761-S           J34-S            J227-S           CONDUIT          112.3    4.7409    0.0160
  C771             J46              J240             CONDUIT          172.2    1.0744    0.0120
  C771-S           J46-S            J240-S           CONDUIT          172.2    2.6141    0.0160
  C772             J240             J245             CONDUIT          455.5    1.5370    0.0120
  C772-S           J240-S           J245-S           CONDUIT          455.5    0.6586    0.0160
  C773             J245             Out47            CONDUIT          690.1    0.1449    0.0110
  C779             J238             J240             CONDUIT          356.2    0.3397    0.0110
  C779-S           J238-S           J240-S           CONDUIT          356.2    2.5275    0.0160
  C783             J90              Out123           CONDUIT          369.0    0.7994    0.0130
  C79              J695             J128             CONDUIT          369.1    0.8479    0.0110
  C797             J541             J8               CONDUIT          751.9    0.2274    0.0120
  C797-S           J541-S           J8-S             CONDUIT          751.9    0.3325    0.0160
  C79-S            J695-S           J128-S           CONDUIT          369.1    0.8127    0.0160
  C7-S             J460-S           J461-S           CONDUIT          835.6    2.3943    0.0160
  C8               J10              Out59            CONDUIT           69.0    0.1449    0.0130
  C800             J182-S           J80-S            CONDUIT         1688.2    0.2962    0.0160
  C816             J273             J260             CONDUIT          627.5    5.4915    0.0130
  C816-S           J273-S           J260-S           CONDUIT          627.5    5.5859    0.0160
  C830             J116             J119             CONDUIT         1017.6    0.5503    0.0110
  C830-S           J116-S           J119-S           CONDUIT         1017.6    0.3440    0.0160
  C834             J799             J798             CONDUIT           89.2    0.5270    0.0110
  C839             J253             J366             CONDUIT          101.8    1.2378    0.0130
  C839-S           J253-S           J366-S           CONDUIT          101.8    1.4736    0.0160
  C84              J694             J128             CONDUIT          494.1    0.2287    0.0130
  C84-S            J694-S           J128-S           CONDUIT          494.1    0.3036    0.0160
  C86              J128             Out73            CONDUIT          294.1    1.1459    0.0130
  C89              J675             J556             CONDUIT         1005.9    0.4384    0.0130
  C89-S            J675-S           J556-S           CONDUIT         1005.9    0.3480    0.0160
  C9               J3               Out87            CONDUIT          402.0    0.2488    0.0120
  C94              J556             Out19            CONDUIT          711.6    0.2979    0.0130
  1                J568-S           Out5             WEIR        
  10               J62-S            Out6             WEIR        
  11               J130-S           Out7             WEIR        
  12               J136-S           Out8             WEIR        
  13               J157-S           Out10            WEIR        
  15               J71-S            Out11            WEIR        
  16               J88-S            Out14            WEIR        
  17               J33-S            Out17            WEIR        
  18               J227-S           Out18            WEIR        
  19               J245-S           Out22            WEIR        
  2                J539-S           Out23            WEIR        
  3                J556-S           Out24            WEIR        
  34               J10-S            Out26            WEIR        
  35               J3-S             Out25            WEIR        
  36               J4-S             Out20            WEIR        
  37               J5-S             Out21            WEIR        
  39               J8-S             Out9             WEIR        
  4                J128-S           Out28            WEIR        
  40               J7-S             Out13            WEIR        
  5                J732-S           Out29            WEIR        
  6                J765-S           Out32            WEIR        
  7                J799-S           Out33            WEIR        
  8                J191-S           Out34            WEIR        
  9                J761-S           Out35            WEIR        
  20               J587-S           J587             OUTLET      
  21               J10-S            J10              OUTLET      
  22               J756-S           J756             OUTLET      
  23               J3-S             J3               OUTLET      
  24               J171-S           J171             OUTLET      
  25               J4-S             J4               OUTLET      
  26               J733-S           J733             OUTLET      
  27               J5-S             J5               OUTLET      
  30               J762-S           J762             OUTLET      
  31               J7-S             J7               OUTLET      
  32               J8-S             J8               OUTLET      
  33               J541-S           J541             OUTLET      
  J105-IC          J105-S           J105             OUTLET      
  J116-IC          J116-S           J116             OUTLET      
  J119-IC          J119-S           J119             OUTLET      
  J128-IC          J128-S           J128             OUTLET      
  J130-IC          J130-S           J130             OUTLET      
  J131-IC          J131-S           J131             OUTLET      
  J136-IC          J136-S           J136             OUTLET      
  J138-IC          J138-S           J138             OUTLET      
  J141-IC          J141-S           J141             OUTLET      
  J157-IC          J157-S           J157             OUTLET      
  J163-IC          J163-S           J163             OUTLET      
  J165-IC          J165-S           J165             OUTLET      
  J177-IC          J177-S           J177             OUTLET      
  J182-IC          J182-S           J182             OUTLET      
  J191-IC          J191-S           J191             OUTLET      
  J1-IC            J1-S             J1               OUTLET      
  J204-IC          J204-S           J204             OUTLET      
  J208-IC          J208-S           J208             OUTLET      
  J211-IC          J211-S           J211             OUTLET      
  J227-IC          J227-S           J227             OUTLET      
[...]
  C334                    1.00   0.00  0.00  0.00  1.00  0.00  0.00  0.00  0.00  0.00
  C338                    1.00   0.00  0.00  0.00  0.12  0.88  0.00  0.00  0.16  0.00
  C338-S                  1.00   0.60  0.02  0.00  0.22  0.16  0.00  0.00  0.48  0.00
  C34                     1.00   0.00  0.00  0.00  0.24  0.75  0.00  0.00  0.93  0.00
  C340                    1.00   0.00  0.00  0.00  0.96  0.04  0.00  0.00  0.98  0.00
  C340-S                  1.00   0.18  0.63  0.00  0.08  0.12  0.00  0.00  0.91  0.00
  C34-S                   1.00   0.42  0.16  0.00  0.35  0.07  0.00  0.00  0.95  0.00
  C351                    1.00   0.00  0.00  0.00  0.18  0.82  0.00  0.00  0.12  0.00
  C351-S                  1.00   0.48  0.00  0.00  0.34  0.18  0.00  0.00  0.04  0.00
  C355                    1.00   0.00  0.00  0.00  1.00  0.00  0.00  0.00  0.00  0.00
  C355-S                  1.00   0.86  0.00  0.00  0.02  0.12  0.00  0.00  0.00  0.00
  C361                    1.00   0.00  0.00  0.00  1.00  0.00  0.00  0.00  1.00  0.00
  C361-S                  1.00   0.21  0.00  0.00  0.55  0.25  0.00  0.00  0.01  0.00
  C362                    1.00   0.00  0.00  0.00  1.00  0.00  0.00  0.00  0.00  0.00
  C362-S                  1.00   0.80  0.00  0.00  0.04  0.16  0.00  0.00  0.03  0.00
  C368                    1.00   0.00  0.00  0.00  0.99  0.01  0.00  0.00  0.00  0.00
  C37                     1.00   0.00  0.00  0.00  0.98  0.02  0.00  0.00  0.98  0.00
  C37-S                   1.00   0.45  0.18  0.00  0.22  0.15  0.00  0.00  0.06  0.00
  C382                    1.00   0.00  0.00  0.00  0.97  0.03  0.00  0.00  0.97  0.00
  C382-S                  1.00   0.57  0.03  0.00  0.24  0.16  0.00  0.00  0.69  0.00
  C397                    1.00   0.00  0.00  0.00  0.00  1.00  0.00  0.00  0.07  0.00
  C3-S                    1.00   0.08  0.00  0.00  0.55  0.37  0.00  0.00  0.00  0.00
  C4                      1.00   0.00  0.00  0.00  0.76  0.23  0.00  0.00  0.92  0.00
  C417                    1.00   0.00  0.00  0.00  1.00  0.00  0.00  0.00  0.97  0.00
  C417-S                  1.00   0.23  0.00  0.00  0.63  0.14  0.00  0.00  0.00  0.00
  C418                    1.00   0.00  0.00  0.00  0.89  0.11  0.00  0.00  0.00  0.00
  C418-S                  1.00   0.76  0.00  0.00  0.12  0.12  0.00  0.00  0.08  0.00
  C422                    1.00   0.00  0.00  0.00  0.11  0.89  0.00  0.00  0.94  0.00
  C422-S                  1.00   0.57  0.00  0.00  0.37  0.06  0.00  0.00  0.13  0.00
  C449                    1.00   0.00  0.00  0.00  1.00  0.00  0.00  0.00  1.00  0.00
  C449-S                  1.00   0.21  0.09  0.00  0.41  0.29  0.00  0.00  0.05  0.00
  C462                    1.00   0.00  0.00  0.00  0.06  0.93  0.00  0.00  0.00  0.00
  C462-S                  1.00   0.73  0.00  0.00  0.20  0.06  0.00  0.00  0.00  0.00
  C463                    1.00   0.00  0.00  0.00  1.00  0.00  0.00  0.00  0.00  0.00
  C463-S                  1.00   0.15  0.00  0.00  0.71  0.14  0.00  0.00  0.11  0.00
  C473                    1.00   0.00  0.00  0.00  0.56  0.44  0.00  0.00  0.15  0.00
  C473-S                  1.00   0.39  0.00  0.00  0.41  0.20  0.00  0.00  0.00  0.00
  C474                    1.00   0.00  0.00  0.00  0.00  1.00  0.00  0.00  0.03  0.00
  C474-S                  1.00   0.83  0.00  0.00  0.02  0.15  0.00  0.00  0.03  0.00
  C476                    1.00   0.00  0.00  0.00  0.00  1.00  0.00  0.00  0.09  0.00
  C478                    1.00   0.00  0.00  0.00  0.08  0.92  0.00  0.00  0.09  0.00
  C478-S                  1.00   0.55  0.00  0.00  0.31  0.14  0.00  0.00  0.04  0.00
  C5                      1.00   0.00  0.00  0.00  0.98  0.02  0.00  0.00  0.03  0.00
  C509-S                  1.00   0.00  0.00  0.00  1.00  0.00  0.00  0.00  0.01  0.00
  C530                    1.00   0.00  0.00  0.00  0.82  0.18  0.00  0.00  0.00  0.00
  C530-S                  1.00   0.13  0.00  0.00  0.60  0.27  0.00  0.00  0.01  0.00
  C532                    1.00   0.00  0.00  0.00  0.95  0.05  0.00  0.00  0.98  0.00
  C532-S                  1.00   0.13  0.78  0.00  0.09  0.00  0.00  0.00  0.98  0.00
  C548                    1.00   0.00  0.00  0.00  0.99  0.01  0.00  0.00  0.96  0.00
  C548-S                  1.00   0.88  0.00  0.00  0.01  0.10  0.00  0.00  0.00  0.00
  C549                    1.00   0.00  0.00  0.00  1.00  0.00  0.00  0.00  0.88  0.00
  C549-S                  1.00   0.84  0.09  0.00  0.05  0.02  0.00  0.00  0.97  0.00
  C550                    1.00   0.00  0.00  0.00  0.00  1.00  0.00  0.00  0.20  0.00
  C550-S                  1.00   0.28  0.00  0.00  0.52  0.20  0.00  0.00  0.00  0.00
  C551                    1.00   0.00  0.00  0.00  0.99  0.01  0.00  0.00  1.00  0.00
  C551-S                  1.00   0.82  0.00  0.00  0.02  0.16  0.00  0.00  0.03  0.00
  C556                    1.00   0.00  0.00  0.00  0.14  0.86  0.00  0.00  0.94  0.00
  C556-S                  1.00   0.81  0.00  0.00  0.06  0.13  0.00  0.00  0.02  0.00
  C576                    1.00   0.00  0.00  0.00  0.00  1.00  0.00  0.00  0.00  0.00
  C576-S                  1.00   0.00  0.84  0.00  0.09  0.07  0.00  0.00  0.90  0.00
  C602                    1.00   0.00  0.00  0.00  0.99  0.01  0.00  0.00  0.99  0.00
  C602-S                  1.00   0.15  0.00  0.00  0.56  0.28  0.00  0.00  0.02  0.00
  C610                    1.00   0.00  0.00  0.00  0.00  1.00  0.00  0.00  0.08  0.00
  C638                    1.00   0.00  0.00  0.00  1.00  0.00  0.00  0.00  0.98  0.00
  C638-S                  1.00   0.61  0.00  0.00  0.39  0.00  0.00  0.00  0.00  0.00
  C65                     1.00   0.00  0.00  0.00  0.00  1.00  0.00  0.00  1.00  0.00
  C650                    1.00   0.00  0.00  0.00  1.00  0.00  0.00  0.00  0.18  0.00
  C650-S                  1.00   0.01  0.00  0.00  0.46  0.53  0.00  0.00  0.06  0.00
  C659                    1.00   0.00  0.00  0.00  1.00  0.00  0.00  0.00  0.94  0.00
  C659-S                  1.00   0.41  0.00  0.00  0.39  0.20  0.00  0.00  0.01  0.00
  C65-S                   1.00   0.60  0.00  0.00  0.16  0.24  0.00  0.00  0.00  0.00
  C677                    1.00   0.00  0.00  0.00  0.99  0.01  0.00  0.00  1.00  0.00
  C677-S                  1.00   0.24  0.02  0.00  0.62  0.13  0.00  0.00  0.14  0.00
  C68                     1.00   0.00  0.00  0.00  0.00  1.00  0.00  0.00  0.00  0.00
  C681                    1.00   0.00  0.00  0.00  0.96  0.04  0.00  0.00  1.00  0.00
  C681-S                  1.00   0.83  0.03  0.00  0.08  0.06  0.00  0.00  0.97  0.00
  C685                    1.00   0.00  0.00  0.00  0.97  0.03  0.00  0.00  0.00  0.00
  C685-S                  1.00   0.33  0.51  0.00  0.14  0.01  0.00  0.00  0.99  0.00
  C686                    1.00   0.00  0.00  0.00  1.00  0.00  0.00  0.00  0.19  0.00
  C687                    1.00   0.00  0.00  0.00  0.12  0.88  0.00  0.00  0.12  0.00
  C687-S                  1.00   0.56  0.00  0.00  0.31  0.14  0.00  0.00  0.05  0.00
  C68-S                   1.00   0.84  0.01  0.00  0.13  0.02  0.00  0.00  0.02  0.00
  C69                     1.00   0.00  0.00  0.00  0.01  0.99  0.00  0.00  0.03  0.00
  C69-S                   1.00   0.00  0.85  0.00  0.07  0.08  0.00  0.00  0.90  0.00
  C6-S                    1.00   0.29  0.42  0.00  0.13  0.16  0.00  0.00  0.82  0.00
  C707                    1.00   0.00  0.00  0.00  1.00  0.00  0.00  0.00  0.07  0.00
  C708                    1.00   0.00  0.00  0.00  1.00  0.00  0.00  0.00  1.00  0.00
  C708-S                  1.00   0.38  0.00  0.00  0.42  0.20  0.00  0.00  0.05  0.00
  C713                    1.00   0.00  0.00  0.00  0.79  0.21  0.00  0.00  0.93  0.00
  C719                    1.00   0.00  0.00  0.00  1.00  0.00  0.00  0.00  0.00  0.00
  C725                    1.00   0.00  0.00  0.00  0.97  0.03  0.00  0.00  0.99  0.00
  C725-S                  1.00   0.82  0.04  0.00  0.09  0.06  0.00  0.00  0.92  0.00
  C728                    1.00   0.00  0.00  0.00  0.12  0.88  0.00  0.00  0.14  0.00
  C728-S                  1.00   0.59  0.00  0.00  0.25  0.16  0.00  0.00  0.08  0.00
  C729                    1.00   0.00  0.00  0.00  0.17  0.83  0.00  0.00  1.00  0.00
  C729-S                  1.00   0.29  0.00  0.00  0.51  0.21  0.00  0.00  0.04  0.00
  C732                    1.00   0.00  0.00  0.00  0.86  0.14  0.00  0.00  0.92  0.00
  C734                    1.00   0.00  0.00  0.00  1.00  0.00  0.00  0.00  0.91  0.00
  C734-S                  1.00   0.74  0.00  0.00  0.21  0.05  0.00  0.00  0.11  0.00
  C737                    1.00   0.00  0.00  0.00  0.00  1.00  0.00  0.00  0.08  0.00
  C74                     1.00   0.00  0.00  0.00  0.00  1.00  0.00  0.00  0.99  0.00
  C740                    1.00   0.00  0.00  0.00  0.00  0.00  0.00  1.00  0.00  0.00
  C740-S                  1.00   0.47  0.00  0.00  0.41  0.12  0.00  0.00  0.12  0.00
  C742                    1.00   0.00  0.00  0.00  0.02  0.00  0.00  0.98  0.00  0.00
  C742-S                  1.00   0.89  0.06  0.00  0.05  0.00  0.00  0.00  0.98  0.00
  C744                    1.00   0.00  0.00  0.00  0.02  0.00  0.00  0.98  0.02  0.00
  C744-S                  1.00   0.55  0.00  0.00  0.32  0.13  0.00  0.00  0.02  0.00
  C74-S                   1.00   0.00  0.00  0.00  0.00  1.00  0.00  0.00  0.00  0.00
  C752                    1.00   0.00  0.00  0.00  1.00  0.00  0.00  0.00  0.14  0.00
  C752-S                  1.00   0.32  0.00  0.00  0.49  0.19  0.00  0.00  0.08  0.00
  C753                    1.00   0.00  0.00  0.00  0.97  0.03  0.00  0.00  0.99  0.00
  C756                    1.00   0.00  0.00  0.00  0.47  0.53  0.00  0.00  0.21  0.00
  C756-S                  1.00   0.36  0.01  0.00  0.47  0.16  0.00  0.00  0.17  0.00
  C758                    1.00   0.00  0.00  0.00  0.72  0.28  0.00  0.00  0.98  0.00
  C758-S                  1.00   0.85  0.10  0.00  0.05  0.00  0.00  0.00  0.98  0.00
  C759                    1.00   0.00  0.47  0.00  0.52  0.00  0.00  0.00  0.98  0.00
  C759-S                  1.00   0.92  0.01  0.00  0.04  0.03  0.00  0.00  0.38  0.00
  C760                    1.00   0.00  0.00  0.00  0.02  0.98  0.00  0.00  0.31  0.00
  C761                    1.00   0.00  0.00  0.00  0.01  0.00  0.00  0.98  0.02  0.00
  C761-S                  1.00   0.56  0.00  0.00  0.40  0.04  0.00  0.00  0.14  0.00
  C771                    1.00   0.00  0.00  0.00  0.19  0.81  0.00  0.00  0.96  0.00
  C771-S                  1.00   0.48  0.00  0.00  0.32  0.20  0.00  0.00  0.09  0.00
  C772                    1.00   0.00  0.00  0.00  0.03  0.97  0.00  0.00  0.04  0.00
  C772-S                  1.00   0.82  0.00  0.00  0.03  0.15  0.00  0.00  0.03  0.00
  C773                    1.00   0.00  0.00  0.00  1.00  0.00  0.00  0.00  0.95  0.00
  C779                    1.00   0.00  0.00  0.00  1.00  0.00  0.00  0.00  0.95  0.00
  C779-S                  1.00   0.70  0.04  0.00  0.24  0.02  0.00  0.00  0.97  0.00
  C783                    1.00   0.00  0.00  0.00  0.79  0.20  0.00  0.00  0.91  0.00
  C79                     1.00   0.00  0.00  0.00  0.00  1.00  0.00  0.00  0.97  0.00
  C797                    1.00   0.00  0.00  0.00  1.00  0.00  0.00  0.00  0.99  0.00
  C797-S                  1.00   0.56  0.00  0.00  0.42  0.02  0.00  0.00  0.16  0.00
  C79-S                   1.00   0.81  0.00  0.00  0.06  0.12  0.00  0.00  0.01  0.00
  C7-S                    1.00   0.57  0.14  0.00  0.08  0.20  0.00  0.00  0.02  0.00
  C8                      1.00   0.00  0.00  0.00  1.00  0.00  0.00  0.00  0.00  0.00
  C800                    1.00   0.71  0.11  0.00  0.13  0.05  0.00  0.00  0.03  0.00
  C816                    1.00   0.00  0.00  0.00  0.40  0.60  0.00  0.00  1.00  0.00
  C816-S                  1.00   0.22  0.16  0.00  0.56  0.06  0.00  0.00  0.78  0.00
  C830                    1.00   0.00  0.00  0.00  0.02  0.98  0.00  0.00  0.00  0.00
  C830-S                  1.00   0.76  0.00  0.00  0.02  0.22  0.00  0.00  0.00  0.00
  C834                    1.00   0.00  0.00  0.00  1.00  0.00  0.00  0.00  0.01  0.00
  C839                    1.00   0.00  0.00  0.00  0.13  0.87  0.00  0.00  0.96  0.00
  C839-S                  1.00   0.39  0.00  0.00  0.49  0.12  0.00  0.00  0.02  0.00
  C84                     1.00   0.00  0.68  0.00  0.32  0.00  0.00  0.00  0.95  0.00
  C84-S                   1.00   0.91  0.02  0.00  0.06  0.01  0.00  0.00  0.94  0.00
  C86                     1.00   0.00  0.00  0.00  0.01  0.99  0.00  0.00  0.21  0.00
  C89                     1.00   0.00  0.00  0.00  0.00  1.00  0.00  0.00  0.00  0.00
  C89-S                   1.00   0.43  0.11  0.00  0.35  0.11  0.00  0.00  0.53  0.00
  C9                      1.00   0.00  0.00  0.00  0.29  0.71  0.00  0.00  0.00  0.00
  C94                     1.00   0.00  0.00  0.00  0.95  0.05  0.00  0.00  0.98  0.00
  
  
  *************************
  Conduit Surcharge Summary
  *************************
  
  ----------------------------------------------------------------------------
                                                           Hours        Hours 
                         --------- Hours Full --------   Above Full   Capacity
  Conduit                Both Ends  Upstream  Dnstream   Normal Flow   Limited
  ----------------------------------------------------------------------------
  C102                        0.01      1.41      0.01      1.80         0.01
  C105                        0.01      0.01      2.28      0.01         0.01
  C111                        0.01      0.01      0.32      0.01         0.01
  C113                        0.25      0.25      1.47      0.01         0.01
  C163                        0.01      0.01      0.47      0.01         0.01
  C164                        0.01      1.61      0.01      1.89         1.43
  C182                        0.82      0.82      1.72      0.01         0.01
  C186                        0.57      0.57      0.65      0.58         0.52
  C187                        0.01      0.58      0.01      2.38         0.01
  C190                        1.47      1.47      1.53      0.01         0.03
  C191                        1.41      1.41      1.59      2.49         0.01
  C2                          0.01      0.01      1.21      0.01         0.01
  C21                         0.01      1.04      0.01      0.80         0.50
  C211                        0.01      0.01      3.22      0.01         0.01
  C226                        0.04      0.04      1.17      0.01         0.01
  C227                        0.31      0.64      0.45      0.63         0.39
  C229                        0.42      0.42      2.21      0.01         0.01
  C236                        0.01      0.01      1.67      0.01         0.01
  C240                        2.00      2.42      2.00      2.43         2.41
  C26                         0.01      0.01      0.58      0.01         0.01
  C260                        0.01      0.01      2.08      0.01         0.01
  C27                         0.58      0.58      3.57      0.01         0.01
  C274                        0.01      0.01      0.61      0.01         0.01
  C282                        0.01      0.01      0.15      0.01         0.01
  C321                        0.01      0.01      1.75      0.01         0.01
  C325                        1.83      1.83      1.88      0.25         0.06
  C327                        1.88      1.88      2.08      0.01         0.01
  C328                        1.85      1.85      2.04      0.01         0.01
  C328-S                      0.01      0.01      0.77      0.01         0.01
  C329                        0.01      2.04      0.01      2.24         1.82
  C334                        0.01      0.12      0.01      0.42         0.06
  C34                         0.01      0.01      2.17      0.01         0.01
  C340                        0.01      0.01      2.04      0.01         0.01
  C355                        0.01      0.02      0.01      1.02         0.01
  C361                        0.01      0.01      1.73      0.01         0.01
  C362                        0.44      0.44      1.01      0.01         0.01
  C368                        0.01      0.01      0.01      0.10         0.01
  C37                         0.01      0.01      1.04      0.01         0.01
  C382                        0.01      0.01      1.24      0.01         0.01
  C417                        1.09      1.09      1.76      0.01         0.01
  C418                        0.01      1.48      0.01      1.76         1.07
  C449                        0.01      0.01      0.12      0.01         0.01
  C462                        0.01      4.34      0.01      4.06         3.44
  C463                        4.34      4.34      5.52      5.21         0.01
  C530                        1.44      1.46      1.50      1.51         0.38
  C532                        0.60      0.60      1.46      0.13         0.01
  C548                        1.73      1.73      2.10      0.01         0.01
  C549                        1.58      1.59      1.60      1.44         1.41
  C551                        0.01      0.01      6.79      0.01         0.01
  C556                        1.50      1.50      1.73      1.19         0.01
  C576                        0.01      1.60      0.01      1.74         0.01
  C602                        0.01      0.01      1.41      0.01         0.01
  C638                        0.01      0.01      0.22      0.01         0.01
  C65                         0.01      0.01      0.02      0.01         0.01
  C650                        0.01      0.01      0.16      0.01         0.01
  C659                        0.04      0.04      1.51      0.01         0.02
  C677                        0.01      0.01      1.44      0.01         0.01
  C68                         0.01      0.02      0.01      0.35         0.01
  C681                        0.01      0.01      1.34      0.05         0.01
  C685                        0.01      0.01      0.01      0.07         0.01
  C686                        1.48      1.48     59.00      1.33         1.32
  C687                        1.03      1.03      1.48      0.01         0.01
  C69                         0.01      0.01      0.49      0.01         0.01
  C707                        0.01      0.01     59.00      0.01         0.01
  C719                        0.01      2.25      0.01      2.73         2.00
  C734                        1.50      1.50      1.73      0.01         0.01
  C742                        1.09      1.09      1.11      1.12         1.05
  C744                        0.01      0.01      1.09      0.01         0.01
  C752                        0.67      0.67      1.55      0.01         0.01
  C753                        0.70      0.70      0.91      0.91         0.70
  C756                        0.72      0.72      1.55      0.01         0.01
  C758                        1.12      1.12      1.26      0.74         0.49
  C759                        1.00      1.00      1.24      0.01         0.01
  C760                        1.15      1.26      1.15      1.41         1.25
  C761                        0.01      0.01      0.49      0.01         0.01
  C771                        1.19      1.19      1.37      0.01         0.01
  C772                        1.37      1.37      1.76      1.27         0.64
  C773                        0.01      1.38      0.01      1.53         1.20
  C779                        1.35      1.35      2.13      0.01         0.01
  C8                          0.01      1.51      0.01      2.36         1.32
  C816                        0.01      0.01      1.71      0.01         0.01
  C830                        0.01      1.44      0.01      1.39         0.24
  C839                        0.17      0.17      0.46      0.01         0.01
  C84                         1.05      1.05      1.48      0.01         0.01
  

  Analysis begun on:  Wed Jan  7 11:15:25 2026
  Analysis ended on:  Wed Jan  7 11:16:06 2026
  Total elapsed time: 00:00:41