
  EPA STORM WATER MANAGEMENT MODEL - VERSION 5.2 (Build 5.2.4)
  ------------------------------------------------------------

  WARNING 09: time series interval greater than recording interval for Rain Gage Gage1
  WARNING 04: minimum elevation drop used for Conduit C187
  WARNING 05: minimum slope used for Conduit C187
  WARNING 10: crest elevation raised to downstream invert for regulator Link 12
  WARNING 10: crest elevation raised to downstream invert for regulator Link J509-IC
  WARNING 10: crest elevation raised to downstream invert for regulator Link J789-IC
  WARNING 02: maximum depth increased for Node J182
  WARNING 02: maximum depth increased for Node J541
  WARNING 02: maximum depth increased for Node J714
  WARNING 02: maximum depth increased for Node J732
  WARNING 02: maximum depth increased for Node J756
  
  *************
  Element Count
  *************
  Number of rain gages ...... 1
  Number of subcatchments ... 92
  Number of nodes ........... 315
  Number of links ........... 387
  Number of pollutants ...... 0
  Number of land uses ....... 0
  
  
  ****************
  Raingage Summary
  ****************
                                                      Data       Recording
  Name                 Data Source                    Type       Interval 
  ------------------------------------------------------------------------
  Gage1                6/27/2023                      CUMULATIVE   1 min.
  
  
  ********************
  Subcatchment Summary
  ********************
  Name                       Area     Width   %Imperv    %Slope Rain Gage            Outlet              
  -----------------------------------------------------------------------------------------------------------
  S1                        91.41   2532.81     33.30    6.2700 Gage1                J1-S                
  S10                       43.50   1719.16     69.11    5.3000 Gage1                J266-S              
  S11                      106.09   2358.92     83.63    4.3600 Gage1                J413-S              
  S12                      117.42   2473.75     83.71    4.8500 Gage1                J624-S              
  S13                      141.95   3727.03     70.69    5.8000 Gage1                J471-S              
  S14                       42.39    931.76     78.04    4.3000 Gage1                J632-S              
  S15                        9.01   1456.69     78.28    8.9900 Gage1                J329-S              
  S16                      119.58   2591.86     78.15    5.1300 Gage1                J361-S              
  S17                       45.50   2939.63     82.17    5.2600 Gage1                J338-S              
  S18                       52.08   2736.22     55.27    4.3600 Gage1                J460-S              
  S19                       82.54   2329.40     68.12    6.6000 Gage1                J433-S              
  S2                        99.82   3087.27     51.65    6.0700 Gage1                J268-S              
  S20                        2.80    406.82     82.59    1.9600 Gage1                J253-S              
  S21                        4.77    639.76     84.56    5.0900 Gage1                J253-S              
  S22                      128.00   3202.10     80.36    4.7600 Gage1                J659-S              
  S23                        1.74    406.82     87.83    3.0300 Gage1                J421-S              
  S24                       35.67   1309.06     88.29    3.2700 Gage1                J506-S              
  S25                       49.26   2765.75     87.15    3.0500 Gage1                J421-S              
  S26                       98.26   3989.50     88.42    3.8000 Gage1                J480-S              
  S27                      113.20   2185.04     84.48    3.8000 Gage1                J507-S              
  S28                       23.21   1309.06     85.59    3.7800 Gage1                J461-S              
  S29                        2.72    262.47     87.54    3.1100 Gage1                J456-S              
  S3                        37.26   1833.99     67.04    5.1400 Gage1                J273-S              
  S30                        1.61    291.99     88.95    3.0900 Gage1                J456-S              
  S31                       10.80    990.81     85.00    2.8600 Gage1                J456-S              
  S32                       68.78   2969.16     83.63    5.6700 Gage1                J619-S              
  S33                        0.96    262.47     78.90    2.7200 Gage1                J592-S              
  S34                       55.45   2155.51     80.76    3.2100 Gage1                J789-S              
  S35                       29.69   1427.17     65.47    4.5200 Gage1                J484-S              
  S36                       98.54   2270.34     87.31    4.6800 Gage1                J208-S              
  S37                       53.94   2998.69     73.87    4.5500 Gage1                J534-S              
  S38                       46.20   2706.69     86.93    4.5300 Gage1                J712-S              
  S39                       11.04    610.24     88.74    3.7600 Gage1                J484-S              
  S4                        12.07   1105.64     57.44    4.7000 Gage1                J260-S              
  S40                      129.10   1922.57     84.14    4.4700 Gage1                J756-S              
  S41                       28.53   1427.17     78.52    5.6500 Gage1                J49-S               
  S42                       34.13   1309.06     86.69    3.5100 Gage1                J492-S              
  S43                       66.90   1774.93     83.52    5.3500 Gage1                J714-S              
  S44                       60.68   1850.39     78.48    3.4100 Gage1                J587-S              
  S45                       59.33   3087.27     33.84    5.1200 Gage1                J509-S              
  S46                       12.60    495.41     85.63    4.0300 Gage1                J138-S              
  S47                       22.08   1630.58     82.72    2.7900 Gage1                J50-S               
  S48                       42.37   2125.98     87.75    4.6800 Gage1                J105-S              
  S49                        5.71    554.46     87.82    4.1700 Gage1                J748-S              
  S5                       103.39   4455.38     66.44    8.4500 Gage1                J571-S              
  S50                       44.66   2562.34     85.64    4.6700 Gage1                J141-S              
  S51                       31.76   1368.11     87.29    2.6600 Gage1                J749-S              
  S52                       35.64   1745.41     22.42    6.5500 Gage1                J509-S              
  S53                       31.26   1164.70     84.64    2.7000 Gage1                J204-S              
  S54                       28.34   1719.16     76.54    5.6000 Gage1                J733-S              
  S55                       59.38   2795.28     77.13    4.4100 Gage1                J675-S              
  S56                        1.18    226.00     21.59    1.4200 Gage1                J782-S              
  S57                        1.16    436.35     86.23    1.6700 Gage1                J131-S              
  S58                       44.56   1922.57     84.53    3.2500 Gage1                J60-S               
  S59                        0.82    206.69     79.25    4.5300 Gage1                J131-S              
  S6                        89.60   2358.92     80.53    5.0400 Gage1                J328-S              
  S60                       94.18   3300.52     83.73    4.0700 Gage1                J792-S              
  S62                       49.60   1833.99     82.03    3.6900 Gage1                J163-S              
  S63                      115.99   2706.69     84.71    4.3100 Gage1                J548-S              
  S64                       38.15   1512.47     86.74    2.3800 Gage1                J751-S              
  S65                       19.67   1279.53     87.12    1.7800 Gage1                J761-S              
  S67                       36.49   1955.38     67.71    8.5800 Gage1                J65                 
  S69                       17.71   1046.59     87.42    4.6200 Gage1                J171-S              
  S7                       174.60   4570.21     59.15    5.4400 Gage1                J787-S              
  S70                       13.11    639.76     87.28    4.8700 Gage1                J722-S              
  S71                        1.30    262.47     87.71    1.9500 Gage1                J732-S              
  S72                        5.25    843.18     85.48    2.0400 Gage1                J786                
  S73                        3.83    872.70     89.25    5.4600 Gage1                J798                
  S74                        2.82    639.76     84.09    3.2100 Gage1                Out126              
  S75                       35.19   1755.25     86.87    3.9900 Gage1                J762-S              
  S77                        0.17   1076.12     80.93    6.7600 Gage1                J694-S              
  S78                       28.51   2125.98     84.61    2.4400 Gage1                J775                
  S79                       14.97   1171.26     86.94    4.9900 Gage1                J2                  
  S8                       147.03   3435.04     83.57    5.1100 Gage1                J280-S              
  S80                       34.90   2755.91     86.64    3.3500 Gage1                J686-S              
  S81                       37.88   2201.44     81.80    4.3200 Gage1                J556-S              
  S83                       18.48   1571.52     75.10    7.5100 Gage1                J80-S               
  S84                       32.20   1922.57     83.27    3.8400 Gage1                J72-S               
  S85                       61.72   2096.46     85.25    5.6700 Gage1                J78-S               
  S86                       46.39   1833.99     87.70    4.2300 Gage1                J177-S              
  S87                        3.45    623.36     86.12    5.3000 Gage1                J2                  
  S88                       16.65   1368.11     86.22    4.7800 Gage1                J90                 
  S89                        0.48    629.92     83.81    1.9800 Gage1                J231-S              
  S9                         1.13    406.82     87.60    3.4100 Gage1                J801-S              
  S90                       65.65   2969.16     80.81    4.2700 Gage1                J42-S               
  S91                       66.03   1833.99     83.25    4.5100 Gage1                J234-S              
  S92                       25.45   1338.58     88.71    2.9200 Gage1                J541-S              
  S93                       36.63   1830.71     85.39    4.4900 Gage1                Out47               
  S94                       58.68   3303.81     84.81    5.0600 Gage1                J34-S               
  S95                       51.38   2562.34     71.97    3.2900 Gage1                J45-S               
  S96                       46.75   1833.99     86.24    2.8700 Gage1                J46-S               
  S97                       12.17    990.81     85.74    4.9400 Gage1                J238-S              


  *******************
  LID Control Summary
  *******************
                                   No. of        Unit        Unit      % Area    % Imperv      % Perv
  Subcatchment     LID Control      Units        Area       Width     Covered     Treated     Treated
  ---------------------------------------------------------------------------------------------------
  S10              RainGarden           1     1259.44      117.29        0.07        0.07        0.00
  S10              RainGarden           1      676.41      145.45        0.04        0.04        0.00
  S10              RainGarden           1      875.95      175.38        0.05        0.05        0.00
  S10              RainGarden           1     1094.30      206.43        0.06        0.06        0.00
  S10              RainGarden           1     1300.49      240.20        0.07        0.07        0.00
  S10              RainGarden           1     1284.68      239.99        0.07        0.07        0.00
  S10              RainGarden           1     1289.65      240.35        0.07        0.07        0.00
  S10              RainGarden           1     1244.37      239.39        0.07        0.07        0.00
  S10              RainGarden           1     1303.20      241.13        0.07        0.07        0.00
  S10              RainGarden           1     1222.56      239.27        0.06        0.07        0.00
  S10              RainGarden           1     1239.71      241.31        0.07        0.07        0.00
  S10              RainGarden           1      789.31      136.58        0.04        0.04        0.00
  S10              RainGarden           1      611.28      182.21        0.03        0.03        0.00
  S10              RainGarden           1      832.09      230.03        0.04        0.04        0.00
  S10              RainGarden           1      936.88      232.87        0.05        0.05        0.00
  S10              RainGarden           1      885.23      233.71        0.05        0.05        0.00
  S10              RainGarden           1      930.72      233.83        0.05        0.05        0.00
  S10              RainGarden           1      897.45      233.74        0.05        0.05        0.00
  S10              RainGarden           1      929.21      233.80        0.05        0.05        0.00
  S10              RainGarden           1     1119.24      226.81        0.06        0.06        0.00
  S10              RainGarden           1      782.99      195.69        0.04        0.04        0.00
  S10              RainGarden           1      753.69      186.67        0.04        0.04        0.00
  S10              RainGarden           1      666.34       98.73        0.04        0.04        0.00
  S10              RainGarden           1      630.63       52.87        0.03        0.03        0.00
  S10              RainGarden           1      916.78       50.78        0.05        0.05        0.00
  S10              RainGarden           1     1206.69       57.31        0.06        0.06        0.00
  S10              RainGarden           1     1451.01       62.46        0.08        0.08        0.00
  S10              RainGarden           1     1079.83       54.89        0.06        0.06        0.00
  S10              RainGarden           1     1088.08       55.09        0.06        0.06        0.00
  S10              RainGarden           1     1109.13       55.97        0.06        0.06        0.00
  S10              RainGarden           1     1059.96       53.90        0.06        0.06        0.00
  S10              RainGarden           1     1143.01       57.35        0.06        0.06        0.00
  S10              RainGarden           1     1293.12       63.62        0.07        0.07        0.00
  S10              RainGarden           1      954.84      246.26        0.05        0.05        0.00
  S10              RainGarden           1      999.31      246.43        0.05        0.05        0.00
  S10              RainGarden           1      922.33      246.31        0.05        0.05        0.00
  S10              RainGarden           1      953.73      246.34        0.05        0.05        0.00
  S10              RainGarden           1     1002.39      246.46        0.05        0.05        0.00
  S10              RainGarden           1      955.71      246.38        0.05        0.05        0.00
  S10              RainGarden           1      994.93      246.47        0.05        0.05        0.00
  S10              RainGarden           1      971.17      246.36        0.05        0.05        0.00
  S10              RainGarden           1      974.27      246.39        0.05        0.05        0.00
  S10              RainGarden           1      958.68      246.34        0.05        0.05        0.00
  S10              RainGarden           1      997.59      246.43        0.05        0.05        0.00
  S10              RainGarden           1      942.60      246.32        0.05        0.05        0.00
  S10              RainGarden           1      959.24      246.41        0.05        0.05        0.00
  S10              RainGarden           1      977.21      246.39        0.05        0.05        0.00
  S10              RainGarden           1      995.84      246.40        0.05        0.05        0.00
  S10              RainGarden           1      948.19      246.35        0.05        0.05        0.00
  S10              RainGarden           1      961.50      246.34        0.05        0.05        0.00
  S10              RainGarden           1      927.52      246.30        0.05        0.05        0.00
  S10              RainGarden           1     1011.35      246.49        0.05        0.05        0.00
  S10              RainGarden           1      973.19      246.39        0.05        0.05        0.00
  S10              RainGarden           1      847.76      233.52        0.04        0.05        0.00
  S10              RainGarden           1      958.14      233.87        0.05        0.05        0.00
  S10              RainGarden           1      881.75      233.65        0.05        0.05        0.00
  S10              RainGarden           1      919.80      233.71        0.05        0.05        0.00
  S10              RainGarden           1      954.63      233.81        0.05        0.05        0.00
  S10              RainGarden           1      925.64      233.67        0.05        0.05        0.00
  S10              RainGarden           1      884.95      233.55        0.05        0.05        0.00
  S10              RainGarden           1     1251.53      303.28        0.07        0.07        0.00
  S10              RainGarden           1     1167.33      303.15        0.06        0.06        0.00
  S10              RainGarden           1     1172.44      303.24        0.06        0.06        0.00
  S10              RainGarden           1     1201.81      303.27        0.06        0.06        0.00
  S10              RainGarden           1     1191.41      303.22        0.06        0.06        0.00
  S10              RainGarden           1     1063.04       50.45        0.06        0.06        0.00
  S10              RainGarden           1      967.35       46.52        0.05        0.05        0.00
  S10              RainGarden           1     1096.21       51.84        0.06        0.06        0.00
  S10              RainGarden           1      994.05       47.71        0.05        0.05        0.00
  S10              RainGarden           1     1085.34       51.49        0.06        0.06        0.00
  S10              RainGarden           1     1010.71       47.78        0.05        0.05        0.00
  S10              RainGarden           1     1129.02       55.21        0.06        0.06        0.00
  S10              RainGarden           1      987.57       47.57        0.05        0.05        0.00
  S10              RainGarden           1      916.28       50.42        0.05        0.05        0.00
  S10              RainGarden           1     1801.93      413.48        0.10        0.10        0.00
  S10              RainGarden           1      958.43      231.16        0.05        0.05        0.00
  S10              RainGarden           1      929.05      231.04        0.05        0.05        0.00
  S10              RainGarden           1      719.79      198.16        0.04        0.04        0.00
  S10              RainGarden           1      753.70      198.19        0.04        0.04        0.00
  S10              RainGarden           1      695.11      198.12        0.04        0.04        0.00
  S10              RainGarden           1      704.13      198.15        0.04        0.04        0.00
  S10              RainGarden           1      728.16      198.15        0.04        0.04        0.00
  S10              RainGarden           1      725.15      198.15        0.04        0.04        0.00
  S10              RainGarden           1      690.34      198.13        0.04        0.04        0.00
  S10              RainGarden           1      719.66      198.09        0.04        0.04        0.00
  S10              RainGarden           1      727.66      198.22        0.04        0.04        0.00
  S10              RainGarden           1      972.19      233.82        0.05        0.05        0.00
  S10              RainGarden           1      915.32      233.65        0.05        0.05        0.00
  S10              RainGarden           1    14718.72      455.73        0.78        0.79        0.00
  S10              RainGarden           1     1021.41      202.08        0.05        0.05        0.00
  S10              RainGarden           1      982.51      201.16        0.05        0.05        0.00
  S10              RainGarden           1      998.49      202.01        0.05        0.05        0.00
  S10              RainGarden           1      973.88      201.59        0.05        0.05        0.00
  S10              RainGarden           1      950.42      177.43        0.05        0.05        0.00
  S10              RainGarden           1     1028.54       62.44        0.05        0.06        0.00
  S10              RainGarden           1     5702.42      359.68        0.30        0.07        0.00
  S11              RainGarden           1     1019.45      230.81        0.02        0.02        0.00
  S11              RainGarden           1     1800.78       86.49        0.04        0.04        0.00
  S11              RainGarden           1      877.63      240.17        0.02        0.02        0.00
  S11              RainGarden           1      652.44      101.48        0.01        0.01        0.00
  S11              RainGarden           1      664.39       99.69        0.01        0.01        0.00
  S11              RainGarden           1      651.78       97.75        0.01        0.01        0.00
  S11              RainGarden           1      638.26       95.78        0.01        0.01        0.00
  S11              RainGarden           1      625.40       93.87        0.01        0.01        0.00
  S11              RainGarden           1      612.03       91.90        0.01        0.01        0.00
  S11              RainGarden           1      613.88       90.01        0.01        0.01        0.00
  S11              RainGarden           1     2317.38       99.02        0.05        0.05        0.00
  S11              RainGarden           1      783.52      214.35        0.02        0.02        0.00
  S11              RainGarden           1      777.63      214.33        0.02        0.02        0.00
  S11              RainGarden           1      717.09      214.23        0.02        0.02        0.00
  S11              RainGarden           1      845.34      214.45        0.02        0.02        0.00
  S11              RainGarden           1      726.87      214.25        0.02        0.02        0.00
  S11              RainGarden           1      768.18      214.27        0.02        0.02        0.00
  S11              RainGarden           1      761.64      214.25        0.02        0.02        0.00
  S11              RainGarden           1     1029.83       55.77        0.02        0.02        0.00
  S11              RainGarden           1      891.51      200.80        0.02        0.02        0.00
  S11              RainGarden           1      811.21      201.07        0.02        0.02        0.00
  S11              RainGarden           1      824.03      198.03        0.02        0.02        0.00
  S11              RainGarden           1      912.15       50.22        0.02        0.02        0.00
  S11              RainGarden           1      963.06       52.58        0.02        0.02        0.00
  S11              RainGarden           1      989.50       53.44        0.02        0.02        0.00
  S11              RainGarden           1     1044.18      265.53        0.02        0.02        0.00
  S11              RainGarden           1     1111.43      265.90        0.02        0.02        0.00
  S11              RainGarden           1     1126.52      267.76        0.02        0.02        0.00
  S11              RainGarden           1     1083.63      268.03        0.02        0.02        0.00
  S11              RainGarden           1      891.03       47.72        0.02        0.02        0.00
  S11              RainGarden           1      921.06       49.17        0.02        0.02        0.00
  S11              RainGarden           1      900.02       48.88        0.02        0.02        0.00
  S11              RainGarden           1      820.42       43.58        0.02        0.02        0.00
  S11              RainGarden           1      751.88      213.58        0.02        0.02        0.00
  S11              RainGarden           1      794.53      213.65        0.02        0.02        0.00
  S11              RainGarden           1      798.80      213.66        0.02        0.02        0.00
  S11              RainGarden           1      772.48      213.63        0.02        0.02        0.00
  S11              RainGarden           1      794.83      213.67        0.02        0.02        0.00
  S11              RainGarden           1      826.40      213.70        0.02        0.02        0.00
  S11              RainGarden           1      288.11       72.49        0.01        0.01        0.00
  S11              RainGarden           1      879.58       49.42        0.02        0.02        0.00
  S11              RainGarden           1      864.71      230.92        0.02        0.02        0.00
  S11              RainGarden           1     1006.30      246.56        0.02        0.02        0.00
  S11              RainGarden           1     1013.51      247.05        0.02        0.02        0.00
  S11              RainGarden           1     1120.91      247.62        0.02        0.02        0.00
  S11              RainGarden           1      951.18       49.98        0.02        0.02        0.00
  S11              RainGarden           1      877.44       47.13        0.02        0.02        0.00
  S11              RainGarden           1      945.73       50.35        0.02        0.02        0.00
  S11              RainGarden           1      882.21       46.77        0.02        0.02        0.00
  S11              RainGarden           1      852.10       45.36        0.02        0.02        0.00
  S11              RainGarden           1      850.93       45.29        0.02        0.02        0.00
  S11              RainGarden           1      915.12       48.31        0.02        0.02        0.00
  S11              RainGarden           1      807.86       43.29        0.02        0.02        0.00
  S11              RainGarden           1     1475.55       63.89        0.03        0.03        0.00
  S11              RainGarden           1      756.91      205.77        0.02        0.02        0.00
  S11              RainGarden           1      599.17      148.81        0.01        0.01        0.00
  S11              RainGarden           1      523.92      147.61        0.01        0.01        0.00
  S11              RainGarden           1      583.95      146.47        0.01        0.01        0.00
  S11              RainGarden           1      526.89      142.83        0.01        0.01        0.00
  S11              RainGarden           1      844.13       47.59        0.02        0.02        0.00
  S11              RainGarden           1      869.83       50.70        0.02        0.02        0.00
  S11              RainGarden           1      854.68      231.01        0.02        0.02        0.00
  S11              RainGarden           1      838.14      230.99        0.02        0.02        0.00
  S11              RainGarden           1      853.65      231.07        0.02        0.02        0.00
  S11              RainGarden           1      819.19       47.03        0.02        0.02        0.00
  S11              RainGarden           1      779.63       46.44        0.02        0.02        0.00
  S11              RainGarden           1      821.60       48.89        0.02        0.02        0.00
  S11              RainGarden           1      950.36       47.16        0.02        0.02        0.00
  S11              RainGarden           1     1049.99       52.19        0.02        0.02        0.00
  S11              RainGarden           1      913.93       45.95        0.02        0.02        0.00
  S11              RainGarden           1     1031.29       50.38        0.02        0.02        0.00
  S11              RainGarden           1      976.53       49.00        0.02        0.02        0.00
  S11              RainGarden           1      930.47       45.46        0.02        0.02        0.00
  S11              RainGarden           1     1006.00       48.31        0.02        0.02        0.00
  S11              RainGarden           1      924.19       45.56        0.02        0.02        0.00
  S11              RainGarden           1      973.89       45.79        0.02        0.02        0.00
  S11              RainGarden           1     1006.48       49.92        0.02        0.02        0.00
  S11              RainGarden           1      985.20       50.61        0.02        0.02        0.00
  S11              RainGarden           1      949.66       47.23        0.02        0.02        0.00
  S11              RainGarden           1      976.86       47.59        0.02        0.02        0.00
  S11              RainGarden           1      975.31       48.45        0.02        0.02        0.00
  S11              RainGarden           1      951.23       45.23        0.02        0.02        0.00
  S11              RainGarden           1      990.51       46.05        0.02        0.02        0.00
  S11              RainGarden           1      961.71       47.98        0.02        0.02        0.00
  S11              RainGarden           1     1013.29       49.50        0.02        0.02        0.00
  S11              RainGarden           1      965.60       48.67        0.02        0.02        0.00
  S11              RainGarden           1      980.84       51.04        0.02        0.02        0.00
  S11              RainGarden           1      950.07       49.00        0.02        0.02        0.00
  S11              RainGarden           1      942.89       45.95        0.02        0.02        0.00
  S11              RainGarden           1     1001.71       49.30        0.02        0.02        0.00
  S11              RainGarden           1     1183.38       60.18        0.03        0.03        0.00
  S11              RainGarden           1      895.15       44.36        0.02        0.02        0.00
  S11              RainGarden           1      953.44       51.78        0.02        0.02        0.00
  S11              RainGarden           1      792.56      214.35        0.02        0.02        0.00
  S11              RainGarden           1      752.78      214.26        0.02        0.02        0.00
  S11              RainGarden           1      889.90      214.50        0.02        0.02        0.00
  S11              RainGarden           1     1166.95      273.64        0.03        0.03        0.00
  S11              RainGarden           1    10068.49      223.33        0.22        0.22        0.00
  S11              RainGarden           1      834.54      210.61        0.02        0.02        0.00
  S11              RainGarden           1     1016.97       55.86        0.02        0.05        0.00
  S12              RainGarden           1     1094.46       48.53        0.02        0.02        0.00
  S12              RainGarden           1     1074.59       49.64        0.02        0.02        0.00
  S12              RainGarden           1     1089.84       49.87        0.02        0.02        0.00
  S12              RainGarden           1     1072.76       49.45        0.02        0.02        0.00
  S12              RainGarden           1     1084.01       49.74        0.02        0.02        0.00
  S12              RainGarden           1     1077.26       49.58        0.02        0.02        0.00
  S12              RainGarden           1     1076.86       50.59        0.02        0.02        0.00
  S12              RainGarden           1     1061.04       49.91        0.02        0.02        0.00
  S12              RainGarden           1     1111.06       51.28        0.02        0.02        0.00
  S12              RainGarden           1     1075.88       49.25        0.02        0.02        0.00
  S12              RainGarden           1     1267.78       55.88        0.02        0.03        0.00
  S12              RainGarden           1     3846.65       73.92        0.08        0.08        0.00
  S12              RainGarden           1      827.56       41.44        0.02        0.02        0.00
  S12              RainGarden           1     1323.55      370.17        0.03        0.03        0.00
  S12              RainGarden           1      836.08      295.01        0.02        0.02        0.00
  S12              RainGarden           1     1770.29      621.83        0.03        0.04        0.00
  S12              RainGarden           1      650.79       38.34        0.01        0.01        0.00
  S12              RainGarden           1     2989.41       64.18        0.06        0.06        0.00
  S12              RainGarden           1     1450.90      394.12        0.03        0.03        0.00
  S12              RainGarden           1    23142.91      222.38        0.45        0.46        0.00
  S12              RainGarden           1     1171.74      295.91        0.02        0.02        0.00
  S12              RainGarden           1      999.21      295.71        0.02        0.02        0.00
  S12              RainGarden           1     1112.58      295.85        0.02        0.02        0.00
  S12              RainGarden           1     1040.34      295.68        0.02        0.02        0.00
  S12              RainGarden           1      999.69      295.55        0.02        0.02        0.00
  S12              RainGarden           1     1124.19      295.61        0.02        0.02        0.00
  S12              RainGarden           1      991.39      295.36        0.02        0.02        0.00
  S12              RainGarden           1     1176.83      295.47        0.02        0.02        0.00
  S12              RainGarden           1      980.50      295.17        0.02        0.02        0.00
  S12              RainGarden           1     1114.70      295.23        0.02        0.02        0.00
  S12              RainGarden           1     1046.63      295.05        0.02        0.02        0.00
  S12              RainGarden           1     1090.17      294.98        0.02        0.02        0.00
  S12              RainGarden           1     1099.66      294.91        0.02        0.02        0.00
  S12              RainGarden           1     1080.12      294.83        0.02        0.02        0.00
  S12              RainGarden           1     1057.89      294.68        0.02        0.02        0.00
  S12              RainGarden           1     1079.08      294.66        0.02        0.02        0.00
  S12              RainGarden           1     1062.64      294.51        0.02        0.02        0.00
  S12              RainGarden           1     1041.85      294.50        0.02        0.02        0.00
  S12              RainGarden           1      982.37      294.25        0.02        0.02        0.00
  S12              RainGarden           1      999.90      294.17        0.02        0.02        0.00
  S12              RainGarden           1     1022.89      294.15        0.02        0.02        0.00
  S12              RainGarden           1      969.47      293.99        0.02        0.02        0.00
  S12              RainGarden           1      940.55      293.85        0.02        0.02        0.00
  S12              RainGarden           1     1016.32      261.82        0.02        0.02        0.00
  S12              RainGarden           1      853.39      261.53        0.02        0.02        0.00
  S12              RainGarden           1      866.59      261.58        0.02        0.02        0.00
  S12              RainGarden           1     1032.00      261.79        0.02        0.02        0.00
  S12              RainGarden           1      876.11      261.57        0.02        0.02        0.00
  S12              RainGarden           1      957.72      261.72        0.02        0.02        0.00
  S12              RainGarden           1      944.23      261.70        0.02        0.02        0.00
  S12              RainGarden           1      969.24      261.71        0.02        0.02        0.00
  S12              RainGarden           1     1040.78      261.81        0.02        0.02        0.00
  S12              RainGarden           1      919.67      261.69        0.02        0.02        0.00
  S12              RainGarden           1      883.90      261.66        0.02        0.02        0.00
  S12              RainGarden           1      960.67      261.75        0.02        0.02        0.00
  S12              RainGarden           1      925.78      261.75        0.02        0.02        0.00
  S12              RainGarden           1     1063.41      261.92        0.02        0.02        0.00
  S12              RainGarden           1      873.33      261.70        0.02        0.02        0.00
  S12              RainGarden           1      960.43      261.79        0.02        0.02        0.00
  S12              RainGarden           1     1007.01      261.88        0.02        0.02        0.00
  S12              RainGarden           1      840.43      261.66        0.02        0.02        0.00
  S12              RainGarden           1      958.16      261.74        0.02        0.02        0.00
  S12              RainGarden           1      982.91      261.88        0.02        0.02        0.00
  S12              RainGarden           1      913.01      261.87        0.02        0.02        0.00
  S12              RainGarden           1      970.20      261.89        0.02        0.02        0.00
  S12              RainGarden           1     1042.98      261.96        0.02        0.02        0.00
  S12              RainGarden           1     1240.91       62.40        0.02        0.02        0.00
  S12              RainGarden           1     1074.81       55.89        0.02        0.02        0.00
  S12              RainGarden           1     1055.20       54.95        0.02        0.02        0.00
  S12              RainGarden           1     1009.63       52.91        0.02        0.02        0.00
  S12              RainGarden           1     1084.45       56.08        0.02        0.02        0.00
  S12              RainGarden           1     1008.59       52.76        0.02        0.02        0.00
  S12              RainGarden           1     1121.12       57.54        0.02        0.02        0.00
  S12              RainGarden           1     1026.32       53.39        0.02        0.02        0.00
  S12              RainGarden           1     1158.66       59.00        0.02        0.02        0.00
  S12              RainGarden           1     1127.06       57.58        0.02        0.02        0.00
  S12              RainGarden           1     1122.17       57.27        0.02        0.02        0.00
  S12              RainGarden           1     1068.04       54.90        0.02        0.02        0.00
  S12              RainGarden           1     1362.65       67.43        0.03        0.03        0.00
  S12              RainGarden           1     2115.98      100.63        0.04        0.04        0.00
  S12              RainGarden           1     1054.04       54.76        0.02        0.02        0.00
  S12              RainGarden           1      951.76       50.37        0.02        0.02        0.00
  S12              RainGarden           1      865.85       46.66        0.02        0.02        0.00
  S12              RainGarden           1      915.48       48.79        0.02        0.02        0.00
  S12              RainGarden           1      876.03       45.78        0.02        0.02        0.00
  S12              RainGarden           1     2219.30      263.90        0.04        0.04        0.00
  S12              RainGarden           1     1076.81      262.40        0.02        0.02        0.00
  S12              RainGarden           1      987.67      262.40        0.02        0.02        0.00
  S12              RainGarden           1      958.75      262.42        0.02        0.02        0.00
  S12              RainGarden           1      927.67      262.35        0.02        0.02        0.00
  S12              RainGarden           1      880.30      262.33        0.02        0.02        0.00
  S12              RainGarden           1     1034.83      262.58        0.02        0.02        0.00
  S12              RainGarden           1      974.76      262.54        0.02        0.02        0.00
  S12              RainGarden           1      949.26      262.53        0.02        0.02        0.00
  S12              RainGarden           1      986.81      262.59        0.02        0.02        0.00
  S12              RainGarden           1      905.93      262.51        0.02        0.02        0.00
  S12              RainGarden           1      991.08      262.66        0.02        0.02        0.00
  S12              RainGarden           1      939.65      262.57        0.02        0.02        0.00
  S12              RainGarden           1      990.50      262.72        0.02        0.02        0.00
  S12              RainGarden           1      905.19      262.64        0.02        0.02        0.00
  S12              RainGarden           1      979.48      262.77        0.02        0.02        0.00
  S12              RainGarden           1      954.01      262.72        0.02        0.02        0.00
  S12              RainGarden           1      989.40      262.86        0.02        0.02        0.00
  S12              RainGarden           1      916.45      262.79        0.02        0.02        0.00
  S12              RainGarden           1      872.57      262.73        0.02        0.02        0.00
  S12              RainGarden           1     1056.77      263.02        0.02        0.02        0.00
  S12              RainGarden           1      978.58      262.93        0.02        0.02        0.00
  S12              RainGarden           1      952.33      262.92        0.02        0.02        0.00
  S12              RainGarden           1      935.29      262.94        0.02        0.02        0.00
  S12              RainGarden           1      972.59      263.04        0.02        0.02        0.00
  S12              RainGarden           1      935.15      263.00        0.02        0.02        0.00
  S12              RainGarden           1      949.73      263.09        0.02        0.02        0.00
  S12              RainGarden           1      992.59      263.15        0.02        0.02        0.00
  S12              RainGarden           1      648.97      199.77        0.01        0.01        0.00
  S12              RainGarden           1      708.67      199.86        0.01        0.01        0.00
  S12              RainGarden           1      703.20      199.84        0.01        0.01        0.00
  S12              RainGarden           1      693.84      199.85        0.01        0.01        0.00
  S12              RainGarden           1      648.24      199.74        0.01        0.01        0.00
  S12              RainGarden           1     1437.55      201.05        0.03        0.03        0.00
  S12              RainGarden           1      819.04       45.35        0.02        0.02        0.00
  S12              RainGarden           1      911.36       50.92        0.02        0.02        0.00
  S12              RainGarden           1      867.69       49.20        0.02        0.02        0.00
  S12              RainGarden           1      798.53       46.20        0.02        0.02        0.00
  S12              RainGarden           1      772.74       45.27        0.02        0.02        0.00
  S12              RainGarden           1      854.50       49.72        0.02        0.02        0.00
  S12              RainGarden           1      722.91       43.40        0.01        0.01        0.00
  S12              RainGarden           1      806.66       48.05        0.02        0.02        0.00
  S12              RainGarden           1      835.93       49.78        0.02        0.02        0.00
  S12              RainGarden           1      446.40       30.05        0.01        0.01        0.00
  S12              RainGarden           1      808.29       49.54        0.02        0.02        0.00
  S12              RainGarden           1      771.68       47.91        0.02        0.02        0.00
  S12              RainGarden           1      745.03       46.80        0.01        0.01        0.00
  S12              RainGarden           1      760.34       47.95        0.01        0.02        0.00
  S12              RainGarden           1      657.99       42.54        0.01        0.01        0.00
  S12              RainGarden           1      718.97       46.22        0.01        0.01        0.00
  S12              RainGarden           1      675.63       44.09        0.01        0.01        0.00
  S12              RainGarden           1      699.23       45.74        0.01        0.01        0.00
  S12              RainGarden           1      803.52       52.15        0.02        0.02        0.00
  S12              RainGarden           1      797.07      197.39        0.02        0.02        0.00
  S12              RainGarden           1      746.69      197.16        0.01        0.01        0.00
  S12              RainGarden           1      824.34      197.10        0.02        0.02        0.00
  S12              RainGarden           1      601.75      196.58        0.01        0.01        0.00
  S12              RainGarden           1      810.67      196.75        0.02        0.02        0.00
  S12              RainGarden           1     1006.62      325.77        0.02        0.02        0.00
  S12              RainGarden           1      605.84      201.00        0.01        0.01        0.00
  S12              RainGarden           1     1106.65      311.80        0.02        0.02        0.00
  S12              RainGarden           1     1211.90      312.03        0.02        0.02        0.00
  S12              RainGarden           1     1305.80       65.81        0.03        0.03        0.00
  S12              RainGarden           1     1085.79       57.11        0.02        0.02        0.00
  S12              RainGarden           1     1201.85      202.44        0.02        0.02        0.00
  S12              RainGarden           1     1197.83      325.84        0.02        0.02        0.00
  S12              RainGarden           1     1273.70      325.92        0.02        0.03        0.00
  S12              RainGarden           1     1217.78      325.89        0.02        0.02        0.00
  S12              RainGarden           1     1146.92      325.81        0.02        0.02        0.00
  S12              RainGarden           1     1193.05      325.88        0.02        0.02        0.00
  S12              RainGarden           1     1108.38      325.81        0.02        0.02        0.00
  S12              RainGarden           1     1230.46      325.98        0.02        0.02        0.00
  S12              RainGarden           1     1218.58      325.96        0.02        0.02        0.00
  S12              RainGarden           1     1249.30      326.00        0.02        0.02        0.00
  S12              RainGarden           1     1095.66      325.85        0.02        0.02        0.00
  S12              RainGarden           1     1281.23      326.07        0.03        0.03        0.00
  S12              RainGarden           1     1329.00      326.18        0.03        0.03        0.00
  S12              RainGarden           1     1393.03      326.26        0.03        0.03        0.00
  S12              RainGarden           1     1422.76      326.27        0.03        0.03        0.00
  S12              RainGarden           1     1374.79      326.27        0.03        0.03        0.00
  S12              RainGarden           1     1339.13      326.23        0.03        0.03        0.00
  S12              RainGarden           1     1421.66      326.37        0.03        0.03        0.00
  S12              RainGarden           1     1381.92      326.30        0.03        0.03        0.00
  S12              RainGarden           1     1369.18      326.34        0.03        0.03        0.00
  S12              RainGarden           1     1446.58      326.42        0.03        0.03        0.00
  S12              RainGarden           1     1352.93      326.37        0.03        0.03        0.00
  S12              RainGarden           1     1066.36      263.58        0.02        0.02        0.00
  S12              RainGarden           1      967.05       53.60        0.02        0.02        0.00
  S12              RainGarden           1      943.54       54.12        0.02        0.02        0.00
  S12              RainGarden           1      964.60       55.11        0.02        0.02        0.00
  S12              RainGarden           1      901.97       52.15        0.02        0.02        0.00
  S12              RainGarden           1     1040.64       54.85        0.02        0.02        0.00
  S12              RainGarden           1      946.40       50.61        0.02        0.02        0.00
  S12              RainGarden           1      942.63       51.20        0.02        0.02        0.00
  S12              RainGarden           1      940.46       51.10        0.02        0.02        0.00
  S12              RainGarden           1      947.04       51.43        0.02        0.02        0.00
  S12              RainGarden           1      938.79       50.97        0.02        0.02        0.00
  S12              RainGarden           1      950.71       51.53        0.02        0.02        0.00
  S12              RainGarden           1      968.51       52.42        0.02        0.02        0.00
  S12              RainGarden           1      917.36       49.99        0.02        0.02        0.00
  S12              RainGarden           1      926.11       50.38        0.02        0.02        0.00
  S12              RainGarden           1      979.10       52.71        0.02        0.02        0.00
  S12              RainGarden           1     1035.02      263.51        0.02        0.02        0.00
  S12              RainGarden           1     1103.54      263.64        0.02        0.02        0.00
  S12              RainGarden           1     8740.09      195.46        0.17        0.17        0.00
  S12              RainGarden           1      891.33      230.73        0.02        0.02        0.00
  S12              RainGarden           1      848.90      230.65        0.02        0.02        0.00
  S12              RainGarden           1      849.68      230.65        0.02        0.02        0.00
  S12              RainGarden           1      833.17      230.63        0.02        0.02        0.00
  S12              RainGarden           1      848.53      230.65        0.02        0.02        0.00
  S12              RainGarden           1      842.86      230.59        0.02        0.02        0.00
  S12              RainGarden           1      912.27      230.74        0.02        0.02        0.00
  S12              RainGarden           1     1055.65      247.24        0.02        0.02        0.00
  S12              RainGarden           1     1039.48      247.25        0.02        0.02        0.00
  S12              RainGarden           1     1109.92      247.31        0.02        0.02        0.00
  S12              RainGarden           1     1033.42      247.22        0.02        0.02        0.00
  S12              RainGarden           1     1078.92      244.98        0.02        0.02        0.00
  S12              RainGarden           1      781.17      230.75        0.02        0.02        0.00
  S12              RainGarden           1      825.56      230.75        0.02        0.02        0.00
  S12              RainGarden           1      880.60      230.89        0.02        0.02        0.00
  S12              RainGarden           1      783.62      230.76        0.02        0.02        0.00
  S12              RainGarden           1      871.47      230.83        0.02        0.02        0.00
  S12              RainGarden           1      790.87      230.73        0.02        0.02        0.00
  S12              RainGarden           1      835.43      230.87        0.02        0.02        0.00
  S12              RainGarden           1      888.37      230.92        0.02        0.02        0.00
  S12              RainGarden           1      835.00      230.82        0.02        0.02        0.00
  S12              RainGarden           1     1000.33       53.17        0.02        0.02        0.00
  S12              RainGarden           1      938.15       52.73        0.02        0.02        0.00
  S12              RainGarden           1      941.94       52.39        0.02        0.02        0.00
  S12              RainGarden           1     1194.77      272.81        0.02        0.02        0.00
  S12              RainGarden           1     1104.00      271.42        0.02        0.02        0.00
  S12              RainGarden           1     1040.21       53.75        0.02        0.02        0.00
  S12              RainGarden           1     1048.38       56.11        0.02        0.02        0.00
  S12              RainGarden           1     1134.19       58.84        0.02        0.02        0.00
  S12              RainGarden           1    64455.51      735.00        1.26        1.28        0.00
  S12              RainGarden           1   162951.85     1675.26        3.19        3.24        0.00
  S12              RainGarden           1      876.20       46.48        0.02        0.02        0.00
  S12              RainGarden           1      852.52       45.36        0.02        0.02        0.00
  S12              RainGarden           1      937.69       52.27        0.02        0.02        0.00
  S12              RainGarden           1      474.97       55.96        0.01        0.01        0.00
  S12              RainGarden           1      949.27       48.71        0.02        0.02        0.00
  S12              RainGarden           1      962.49       48.12        0.02        0.02        0.00
  S12              RainGarden           1     1012.92       50.87        0.02        0.02        0.00
  S12              RainGarden           1      839.76      230.57        0.02        0.02        0.00
  S12              RainGarden           1      820.29      230.63        0.02        0.02        0.00
  S12              RainGarden           1      848.51      230.66        0.02        0.02        0.00
  S12              RainGarden           1      825.83      230.64        0.02        0.02        0.00
  S12              RainGarden           1      904.24      230.69        0.02        0.02        0.00
  S12              RainGarden           1      940.73      230.73        0.02        0.02        0.00
  S12              RainGarden           1      900.72      230.73        0.02        0.02        0.00
  S12              RainGarden           1      898.58      230.67        0.02        0.02        0.00
  S12              RainGarden           1      909.90      230.71        0.02        0.02        0.00
  S12              RainGarden           1      790.59       47.17        0.02        0.02        0.00
  S12              RainGarden           1      966.36       49.20        0.02        0.02        0.00
  S12              RainGarden           1      936.88       46.57        0.02        0.02        0.00
  S12              RainGarden           1      954.96       46.61        0.02        0.02        0.00
  S12              RainGarden           1     9445.42      452.93        0.18        0.19        0.00
  S12              RainGarden           1      772.67      214.25        0.02        0.02        0.00
  S12              RainGarden           1      795.33      214.23        0.02        0.02        0.00
  S12              RainGarden           1      844.62      214.36        0.02        0.02        0.00
  S12              RainGarden           1      737.86      197.88        0.01        0.01        0.00
  S12              RainGarden           1      679.10      197.82        0.01        0.01        0.00
  S12              RainGarden           1      724.97      197.89        0.01        0.01        0.00
  S12              RainGarden           1      704.67      197.83        0.01        0.01        0.00
  S12              RainGarden           1     1053.97       60.46        0.02        0.02        0.00
  S12              RainGarden           1     1291.60       68.67        0.03        0.03        0.00
  S12              RainGarden           1      883.09       47.56        0.02        0.02        0.00
  S12              RainGarden           1      912.82       48.97        0.02        0.02        0.00
  S12              RainGarden           1      940.02      215.92        0.02        0.22        0.00
  S12              GreenRoof            1    37303.27      306.18        0.73        0.73        0.00
  S12              GreenRoof            1     9809.92      296.76        0.19        0.19        0.00
  S12              BioRetention         1     1595.55       20.43        0.03        0.19        0.00
  S12              BioRetention         1     1247.46       18.94        0.02        0.11        0.00
  S12              BioRetention         1     1884.73       24.02        0.04        0.67        0.00
  S12              RainGarden           1      569.70       28.15        0.01        0.30        0.00
  S12              RainGarden           1      288.11       10.07        0.01        0.02        0.00
  S12              RainGarden           1      282.96       10.42        0.01        0.04        0.00
  S12              RainGarden           1      223.90        9.61        0.00        0.03        0.00
  S12              BioRetention         1      935.20       55.89        0.02        0.41        0.00
  S12              RainBarrel           1      532.14       16.25        0.01        0.13        0.00
  S13              RainGarden           1    40882.03      937.53        0.66        0.66        0.00
  S13              RainGarden           1    41286.65      379.65        0.67        0.67        0.00
  S13              RainGarden           1    12090.02      395.84        0.20        0.20        0.00
  S13              RainGarden           1     1801.56       70.00        0.03        0.03        0.00
  S13              InfilTrench          1     3206.94       33.58        0.05        0.05        0.00
  S13              InfilTrench          1    14790.86      161.08        0.24        9.19        0.00
  S13              InfilTrench          1     1066.14       32.04        0.02        0.02        0.00
  S14              RainGarden           1     8300.80      281.69        0.45        0.44        0.00
  S14              RainGarden           1     1501.73      309.95        0.08        0.08        0.00
  S14              RainGarden           1     1637.92       66.84        0.09        0.09        0.00
  S14              RainGarden           1     1105.69      197.15        0.06        0.06        0.00
  S14              RainGarden           1     1014.73      216.62        0.05        0.05        0.00
  S14              RainGarden           1      812.71       54.63        0.04        0.04        0.00
  S14              RainGarden           1     1448.07       67.55        0.08        0.08        0.00
  S14              RainGarden           1     1132.26       62.53        0.06        0.06        0.00
  S14              RainGarden           1     1335.86      102.55        0.07        0.07        0.00
  S14              RainGarden           1      881.61      230.59        0.05        0.02        0.00
  S14              BioRetention         1      440.22       38.19        0.02        0.02        0.00
  S14              BioRetention         1      669.42       38.47        0.04        0.04        0.00
  S14              BioRetention         1      727.61       41.50        0.04        0.04        0.00
  S14              InfilTrench          1     1902.09      100.46        0.10        0.10        0.00
  S14              GreenRoof            1     1263.40       70.49        0.07        0.07        0.00
  S14              GreenRoof            1     1572.63       50.19        0.09        0.09        0.00
  S15              RainGarden           1      801.17      215.89        0.20        0.19        0.00
  S15              RainGarden           1      958.54      216.14        0.24        0.22        0.00
  S15              RainGarden           1      860.70      216.01        0.22        0.20        0.00
  S15              RainGarden           1      900.37      216.17        0.23        0.21        0.00
  S15              RainGarden           1      897.01      216.24        0.23        0.21        0.00
  S15              RainGarden           1      885.49      216.25        0.23        0.21        0.00
  S15              RainGarden           1      882.45      216.32        0.22        0.20        0.00
  S15              RainGarden           1      845.04      216.32        0.22        0.20        0.00
  S15              RainGarden           1      764.42       45.92        0.19        0.18        0.00
  S15              RainGarden           1      832.39       49.56        0.21        0.19        0.00
  S15              RainGarden           1      723.41       44.05        0.18        0.17        0.00
  S15              RainGarden           1      760.12       45.95        0.19        0.18        0.00
  S15              RainGarden           1      675.46       42.74        0.17        0.16        0.00
  S15              RainGarden           1      788.50       49.08        0.20        0.18        0.00
  S15              RainGarden           1      720.74       45.53        0.18        0.17        0.00
  S15              RainGarden           1      705.62       44.74        0.18        0.16        0.00
  S15              RainGarden           1      730.31       45.89        0.19        0.17        0.00
  S15              RainGarden           1      722.46       45.46        0.18        0.17        0.00
  S15              RainGarden           1      699.04       44.18        0.18        0.16        0.00
  S15              RainGarden           1      703.14       44.25        0.18        0.16        0.00
  S15              RainGarden           1      761.84       47.47        0.19        0.18        0.00
  S15              RainGarden           1      746.11       45.96        0.19        0.17        0.00
  S15              RainGarden           1      699.60       44.21        0.18        0.16        0.00
  S15              RainGarden           1      754.12       47.20        0.19        0.18        0.00
  S15              RainGarden           1      726.72       45.69        0.19        0.17        0.00
  S15              RainGarden           1      707.70       44.64        0.18        0.16        0.00
  S15              RainGarden           1      735.20       45.04        0.19        0.17        0.00
  S15              RainGarden           1      685.87       42.34        0.17        0.16        0.00
  S15              RainGarden           1      912.69      224.06        0.23        0.21        0.00
  S15              RainGarden           1      883.93      224.03        0.23        0.21        0.00
  S15              RainGarden           1      815.53      223.97        0.21        0.19        0.00
  S15              RainGarden           1      815.91      223.93        0.21        0.19        0.00
  S15              RainGarden           1     1000.96       54.72        0.26        0.23        0.00
  S15              RainGarden           1      916.30       51.21        0.23        0.21        0.00
  S15              RainGarden           1      937.92       51.76        0.24        0.22        0.00
  S15              RainGarden           1      777.68      197.94        0.20        0.18        0.00
  S15              RainGarden           1      703.15      197.86        0.18        0.16        0.00
  S15              RainGarden           1      695.82      197.84        0.18        0.16        0.00
  S15              RainGarden           1      775.98      197.97        0.20        0.18        0.00
  S15              RainGarden           1      723.44      197.87        0.18        0.17        0.00
  S15              RainGarden           1      706.92      197.85        0.18        0.16        0.00
  S15              RainGarden           1      683.54      197.85        0.17        0.16        0.00
  S15              RainGarden           1      789.81      197.98        0.20        0.18        0.00
  S15              RainGarden           1      654.11      197.79        0.17        0.15        0.00
  S15              RainGarden           1      699.91      197.86        0.18        0.16        0.00
  S15              RainGarden           1      736.93      197.88        0.19        0.17        0.00
  S15              RainGarden           1      724.26      197.90        0.18        0.17        0.00
  S15              RainGarden           1      780.79      197.96        0.20        0.18        0.00
  S15              RainGarden           1      625.24      197.70        0.16        0.15        0.00
  S15              RainGarden           1      429.52      129.14        0.11        0.10        0.00
  S15              RainGarden           1      429.89      129.17        0.11        0.10        0.00
  S15              RainGarden           1      468.85      129.23        0.12        0.11        0.00
  S15              RainGarden           1      468.74      129.23        0.12        0.11        0.00
  S15              RainGarden           1      468.69      129.23        0.12        0.11        0.00
  S15              RainGarden           1      754.39       44.85        0.19        0.18        0.00
  S15              RainGarden           1      838.67       49.06        0.21        0.19        0.00
  S15              RainGarden           1      788.65       45.61        0.20        0.18        0.00
  S15              RainGarden           1      787.70       45.58        0.20        0.18        0.00
  S15              RainGarden           1     1123.53      231.09        0.29        0.26        0.00
  S15              RainGarden           1      869.57      230.74        0.22        0.20        0.00
  S15              RainGarden           1      799.05      230.62        0.20        0.19        0.00
  S15              RainGarden           1      853.12      230.73        0.22        0.20        0.00
  S15              RainGarden           1      914.09      230.83        0.23        0.21        0.00
  S15              RainGarden           1      845.72      230.67        0.22        0.20        0.00
  S15              RainGarden           1      815.55      230.67        0.21        0.19        0.00
  S15              RainGarden           1      804.81      230.65        0.21        0.19        0.00
  S15              RainGarden           1      884.19      230.72        0.23        0.21        0.00
  S15              RainGarden           1      839.98      230.63        0.21        0.20        0.00
  S15              RainGarden           1      830.16      230.64        0.21        0.19        0.00
  S15              RainGarden           1      839.32      230.69        0.21        0.19        0.00
  S15              RainGarden           1      866.79      230.77        0.22        0.20        0.00
  S15              RainGarden           1      802.40      230.65        0.20        0.19        0.00
  S15              RainGarden           1      840.17      230.71        0.21        0.20        0.00
  S15              RainGarden           1      825.77      230.69        0.21        0.19        0.00
  S15              RainGarden           1      833.17      230.68        0.21        0.19        0.00
  S15              RainGarden           1      895.55      230.78        0.23        0.21        0.00
  S15              RainGarden           1      859.08      230.75        0.22        0.20        0.00
  S15              RainGarden           1      837.72      230.71        0.21        0.19        0.00
  S15              RainGarden           1     1046.89      230.95        0.27        0.24        0.00
  S15              RainGarden           1      805.10       48.19        0.21        0.19        0.00
  S15              RainGarden           1      806.32       48.25        0.21        0.19        0.00
  S15              RainGarden           1     1439.37       84.37        0.37        0.33        0.00
  S15              RainGarden           1      765.43       53.18        0.20        0.18        0.00
  S15              RainGarden           1      730.57       51.24        0.19        0.17        0.00
  S15              RainGarden           1      685.53       48.78        0.17        0.16        0.00
  S15              RainGarden           1      752.83       52.46        0.19        0.17        0.00
  S15              RainGarden           1      663.62       44.77        0.17        0.15        0.00
  S15              RainGarden           1      772.45       47.04        0.20        0.18        0.00
  S15              RainGarden           1      706.31       42.57        0.18        0.16        0.00
  S15              RainGarden           1      691.43       41.79        0.18        0.16        0.00
  S15              RainGarden           1      677.48       41.00        0.17        0.16        0.00
  S15              RainGarden           1      736.38       44.22        0.19        0.17        0.00
  S15              RainGarden           1      674.87       40.87        0.17        0.16        0.00
  S15              RainGarden           1      746.65       44.81        0.19        0.17        0.00
  S15              RainGarden           1      700.71       42.28        0.18        0.16        0.00
  S15              RainGarden           1      840.02      220.88        0.21        0.01        0.00
  S16              RainGarden           1     1642.21       65.17        0.03        0.03        0.00
  S16              RainGarden           1     2766.50      498.27        0.05        0.05        0.00
  S16              RainGarden           1     1618.06      300.37        0.03        0.03        0.00
  S16              RainGarden           1     1642.81      304.28        0.03        0.03        0.00
  S16              RainGarden           1    34472.49     1124.27        0.66        0.65        0.00
  S16              RainGarden           1     1079.57      237.96        0.02        0.02        0.00
  S16              RainGarden           1      970.02      234.81        0.02        0.02        0.00
  S16              RainGarden           1     1288.72      235.18        0.02        0.02        0.00
  S16              RainGarden           1     1164.43      234.85        0.02        0.02        0.00
  S16              RainGarden           1      916.99       54.68        0.02        0.02        0.00
  S16              RainGarden           1    37056.63     1016.85        0.71        0.70        0.00
  S16              RainGarden           1     3324.60      335.39        0.06        0.06        0.00
  S16              RainGarden           1     4189.25      526.30        0.08        0.08        0.00
  S16              RainGarden           1    18956.38      332.34        0.36        0.36        0.00
  S16              RainGarden           1     4228.67      214.75        0.08        0.08        0.00
  S16              RainGarden           1     2757.53      177.39        0.05        0.05        0.00
  S16              RainGarden           1      670.98      203.56        0.01        0.01        0.00
  S16              RainGarden           1      702.30       49.88        0.01        0.01        0.00
  S16              RainGarden           1      872.05       60.95        0.02        0.02        0.00
  S16              RainGarden           1      803.04       56.61        0.02        0.02        0.00
  S16              RainGarden           1     1107.95       48.00        0.02        0.02        0.00
  S16              GreenRoof            1     9868.32      172.35        0.19        0.19        0.00
  S16              GreenRoof            1     1616.20       73.46        0.03        0.03        0.00
  S16              GreenRoof            1      424.95       34.34        0.01        0.01        0.00
  S16              GreenRoof            1     2377.80       57.86        0.05        0.05        0.00
  S16              GreenRoof            1     2772.70       55.82        0.05        0.05        0.00
  S16              GreenRoof            1     3222.48      111.25        0.06        0.06        0.00
  S16              GreenRoof            1     2249.47      146.41        0.04        0.04        0.00
  S16              GreenRoof            1     3180.31       34.57        0.06        0.06        0.00
  S16              BioRetention         1      756.93       15.69        0.01        0.20        0.00
  S16              BioRetention         1     1314.51      129.89        0.03        0.34        0.00
  S17              RainGarden           1      915.28      195.45        0.05        0.04        0.00
  S17              RainGarden           1      910.12      195.32        0.05        0.04        0.00
  S17              RainGarden           1     2084.58      215.51        0.11        0.09        0.00
  S17              RainGarden           1     2859.82      123.66        0.14        0.13        0.00
  S17              RainGarden           1     9546.29      246.65        0.48        0.43        0.00
  S17              RainGarden           1      581.85      155.32        0.03        0.03        0.00
  S17              RainGarden           1      713.95      151.14        0.04        0.03        0.00
  S17              RainGarden           1     1346.59      171.68        0.07        0.06        0.00
  S17              RainGarden           1      761.26       42.77        0.04        0.03        0.00
  S17              RainGarden           1     1091.52       59.12        0.06        0.05        0.00
  S17              RainGarden           1      870.05       48.77        0.04        0.04        0.00
  S17              RainGarden           1     1056.57       58.17        0.05        0.05        0.00
  S17              RainGarden           1      901.58       51.04        0.05        0.04        0.00
  S17              RainGarden           1     1044.98       56.43        0.05        0.05        0.00
  S17              RainGarden           1      916.50       49.37        0.05        0.04        0.00
  S17              RainGarden           1     1389.27       71.33        0.07        0.06        0.00
  S17              RainGarden           1     5876.75      792.79        0.30        0.27        0.00
  S17              RainGarden           1    17554.76      727.62        0.89        0.79        0.00
  S17              RainGarden           1      702.77      215.59        0.04        0.03        0.00
  S17              RainGarden           1    43633.23      481.58        2.20        1.97        0.00
  S17              RainGarden           1     1075.12       50.64        0.05        0.05        0.00
  S17              RainGarden           1     1242.64       57.51        0.06        0.06        0.00
  S17              RainGarden           1     1138.12       54.88        0.06        0.05        0.00
  S17              RainGarden           1      972.78       47.95        0.05        0.04        0.00
  S17              RainGarden           1     1370.08       64.21        0.07        0.06        0.00
  S17              RainGarden           1     1253.43       59.61        0.06        0.06        0.00
  S17              RainGarden           1     1048.84      193.61        0.05        0.05        0.00
  S17              RainGarden           1      952.16      198.14        0.05        0.04        0.00
  S17              RainGarden           1      879.11      195.79        0.04        0.04        0.00
  S17              RainGarden           1     1046.60      198.07        0.05        0.05        0.00
  S17              RainGarden           1     1357.98      261.76        0.07        0.06        0.00
  S17              RainGarden           1      917.60      200.24        0.05        0.04        0.00
  S17              RainGarden           1     1013.58      203.50        0.05        0.05        0.00
  S17              RainGarden           1    23641.80     1012.82        1.19        1.07        0.00
  S17              RainGarden           1      637.97       46.78        0.03        0.03        0.00
  S17              RainGarden           1      741.36       53.35        0.04        0.03        0.00
  S17              RainGarden           1      656.37       47.77        0.03        0.03        0.00
  S17              RainGarden           1      625.82       45.76        0.03        0.03        0.00
  S17              RainGarden           1      647.90       47.20        0.03        0.03        0.00
  S17              RainGarden           1      573.80       42.34        0.03        0.03        0.00
  S17              RainGarden           1      655.95       47.73        0.03        0.03        0.00
  S17              RainGarden           1      581.17       42.80        0.03        0.03        0.00
  S17              RainGarden           1      606.22       44.45        0.03        0.03        0.00
  S17              RainGarden           1      580.01       42.74        0.03        0.03        0.00
  S17              RainGarden           1      613.98       44.97        0.03        0.03        0.00
  S17              RainGarden           1      612.31       45.07        0.03        0.03        0.00
  S17              RainGarden           1      799.17       57.52        0.04        0.04        0.00
  S17              RainGarden           1      816.42       58.67        0.04        0.04        0.00
  S17              RainGarden           1      562.25       42.05        0.03        0.03        0.00
  S17              RainGarden           1      562.41       42.05        0.03        0.03        0.00
  S17              RainGarden           1      562.25       42.02        0.03        0.03        0.00
  S17              RainGarden           1      562.27       42.02        0.03        0.03        0.00
  S17              RainGarden           1      574.89       42.84        0.03        0.03        0.00
  S17              RainGarden           1      599.77       44.51        0.03        0.03        0.00
  S17              RainGarden           1      624.83      192.92        0.03        0.03        0.00
  S17              RainGarden           1      867.62      199.78        0.04        0.04        0.00
  S17              RainGarden           1     1160.97      296.58        0.06        0.05        0.00
[...]
  C249-S                  1.00   0.58  0.00  0.00  0.31  0.12  0.00  0.00  0.00  0.00
  C251                    1.00   0.00  0.01  0.00  0.99  0.00  0.00  0.00  0.99  0.00
  C251-S                  1.00   0.70  0.20  0.00  0.06  0.04  0.00  0.00  0.99  0.00
  C26                     1.00   0.00  0.00  0.00  0.00  1.00  0.00  0.00  0.99  0.00
  C260                    1.00   0.01  0.00  0.00  0.98  0.01  0.00  0.00  0.99  0.00
  C260-S                  1.00   0.58  0.03  0.00  0.29  0.11  0.00  0.00  0.30  0.00
  C26-S                   1.00   0.31  0.00  0.00  0.51  0.18  0.00  0.00  0.00  0.00
  C27                     1.00   0.00  0.00  0.00  1.00  0.00  0.00  0.00  1.00  0.00
  C274                    1.00   0.01  0.00  0.00  0.41  0.58  0.00  0.00  0.47  0.00
  C274-S                  1.00   0.40  0.00  0.00  0.38  0.21  0.00  0.00  0.00  0.00
  C279                    1.00   0.01  0.00  0.00  0.15  0.84  0.00  0.00  0.17  0.00
  C279-S                  1.00   0.48  0.00  0.00  0.34  0.18  0.00  0.00  0.00  0.00
  C27-S                   1.00   0.82  0.06  0.00  0.11  0.01  0.00  0.00  0.98  0.00
  C282                    1.00   0.01  0.00  0.00  0.75  0.24  0.00  0.00  0.70  0.00
  C292                    1.00   0.01  0.00  0.00  0.56  0.43  0.00  0.00  0.99  0.00
  C292-S                  1.00   0.74  0.08  0.00  0.02  0.15  0.00  0.00  0.04  0.00
  C2-S                    1.00   0.56  0.17  0.00  0.18  0.10  0.00  0.00  0.04  0.00
  C3                      1.00   0.00  0.00  0.00  0.99  0.00  0.00  0.00  1.00  0.00
  C301                    1.00   0.00  0.00  0.00  0.82  0.18  0.00  0.00  1.00  0.00
  C301-S                  1.00   0.70  0.16  0.00  0.03  0.11  0.00  0.00  0.90  0.00
  C314                    1.00   0.01  0.00  0.00  0.63  0.36  0.00  0.00  0.16  0.00
  C314-S                  1.00   0.49  0.00  0.00  0.32  0.19  0.00  0.00  0.00  0.00
  C317                    1.00   0.01  0.00  0.00  0.00  0.99  0.00  0.00  0.00  0.00
  C317-S                  1.00   0.83  0.00  0.00  0.01  0.16  0.00  0.00  0.00  0.00
  C319                    1.00   0.01  0.00  0.00  0.99  0.00  0.00  0.00  0.99  0.00
  C319-S                  1.00   0.00  0.91  0.00  0.09  0.00  0.00  0.00  0.99  0.00
  C321                    1.00   0.01  0.00  0.00  0.82  0.17  0.00  0.00  0.98  0.00
  C321-S                  1.00   0.00  0.00  0.00  0.01  0.99  0.00  0.00  0.00  0.00
  C325                    1.00   0.01  0.00  0.00  0.88  0.11  0.00  0.00  0.01  0.00
  C325-S                  1.00   0.41  0.45  0.00  0.13  0.00  0.00  0.00  0.99  0.00
  C327                    1.00   0.01  0.00  0.00  0.73  0.26  0.00  0.00  0.97  0.00
  C327-S                  1.00   0.43  0.00  0.00  0.43  0.14  0.00  0.00  0.01  0.00
  C328                    1.00   0.01  0.00  0.00  0.99  0.00  0.00  0.00  0.97  0.00
  C328-S                  1.00   0.60  0.31  0.00  0.09  0.00  0.00  0.00  0.99  0.00
  C329                    1.00   0.00  0.01  0.00  0.96  0.03  0.00  0.00  0.96  0.00
  C334                    1.00   0.01  0.00  0.00  0.99  0.00  0.00  0.00  0.00  0.00
  C338                    1.00   0.01  0.00  0.00  0.11  0.88  0.00  0.00  0.18  0.00
  C338-S                  1.00   0.69  0.03  0.00  0.17  0.11  0.00  0.00  0.24  0.00
  C34                     1.00   0.01  0.00  0.00  0.17  0.82  0.00  0.00  0.63  0.00
  C340                    1.00   0.01  0.00  0.00  0.97  0.02  0.00  0.00  0.98  0.00
  C340-S                  1.00   0.41  0.45  0.00  0.07  0.08  0.00  0.00  0.98  0.00
  C34-S                   1.00   0.55  0.13  0.00  0.30  0.02  0.00  0.00  0.80  0.00
  C351                    1.00   0.01  0.00  0.00  0.40  0.59  0.00  0.00  0.09  0.00
  C351-S                  1.00   0.59  0.00  0.00  0.27  0.14  0.00  0.00  0.03  0.00
  C355                    1.00   0.00  0.00  0.00  1.00  0.00  0.00  0.00  0.00  0.00
  C355-S                  1.00   0.89  0.00  0.00  0.01  0.09  0.00  0.00  0.00  0.00
  C361                    1.00   0.00  0.00  0.00  1.00  0.00  0.00  0.00  1.00  0.00
  C361-S                  1.00   0.41  0.00  0.00  0.41  0.18  0.00  0.00  0.02  0.00
  C362                    1.00   0.00  0.00  0.00  1.00  0.00  0.00  0.00  0.00  0.00
  C362-S                  1.00   0.85  0.00  0.00  0.03  0.12  0.00  0.00  0.02  0.00
  C368                    1.00   0.01  0.00  0.00  0.98  0.00  0.00  0.00  0.00  0.00
  C37                     1.00   0.01  0.00  0.00  0.97  0.02  0.00  0.00  0.98  0.00
  C37-S                   1.00   0.57  0.16  0.00  0.14  0.14  0.00  0.00  0.02  0.00
  C382                    1.00   0.00  0.01  0.00  0.98  0.01  0.00  0.00  0.98  0.00
  C382-S                  1.00   0.64  0.05  0.00  0.20  0.11  0.00  0.00  0.87  0.00
  C397                    1.00   0.01  0.00  0.00  0.00  0.99  0.00  0.00  0.06  0.00
  C3-S                    1.00   0.25  0.00  0.00  0.46  0.29  0.00  0.00  0.00  0.00
  C4                      1.00   0.01  0.00  0.00  0.81  0.18  0.00  0.00  0.94  0.00
  C417                    1.00   0.01  0.00  0.00  0.99  0.00  0.00  0.00  0.98  0.00
  C417-S                  1.00   0.41  0.00  0.00  0.51  0.08  0.00  0.00  0.00  0.00
  C418                    1.00   0.01  0.00  0.00  0.90  0.09  0.00  0.00  0.00  0.00
  C418-S                  1.00   0.82  0.00  0.00  0.08  0.09  0.00  0.00  0.06  0.00
  C422                    1.00   0.01  0.01  0.00  0.19  0.80  0.00  0.00  0.89  0.00
  C422-S                  1.00   0.67  0.00  0.00  0.29  0.04  0.00  0.00  0.09  0.00
  C449                    1.00   0.00  0.01  0.00  0.99  0.00  0.00  0.00  0.99  0.00
  C449-S                  1.00   0.36  0.07  0.00  0.35  0.22  0.00  0.00  0.76  0.00
  C462                    1.00   0.00  0.00  0.00  0.00  1.00  0.00  0.00  0.00  0.00
  C462-S                  1.00   0.81  0.00  0.00  0.15  0.04  0.00  0.00  0.00  0.00
  C463                    1.00   0.00  0.00  0.00  1.00  0.00  0.00  0.00  0.00  0.00
  C463-S                  1.00   0.36  0.00  0.00  0.56  0.08  0.00  0.00  0.08  0.00
  C473                    1.00   0.01  0.00  0.00  0.63  0.36  0.00  0.00  0.10  0.00
  C473-S                  1.00   0.51  0.00  0.00  0.35  0.14  0.00  0.00  0.00  0.00
  C474                    1.00   0.01  0.00  0.00  0.00  0.99  0.00  0.00  0.02  0.00
  C474-S                  1.00   0.88  0.00  0.00  0.02  0.09  0.00  0.00  0.02  0.00
  C476                    1.00   0.01  0.00  0.00  0.00  0.99  0.00  0.00  0.24  0.00
  C478                    1.00   0.01  0.00  0.00  0.20  0.79  0.00  0.00  0.15  0.00
  C478-S                  1.00   0.65  0.00  0.00  0.27  0.08  0.00  0.00  0.03  0.00
  C5                      1.00   0.00  0.00  0.00  1.00  0.00  0.00  0.00  0.01  0.00
  C509-S                  1.00   0.00  0.00  0.00  1.00  0.00  0.00  0.00  0.02  0.00
  C530                    1.00   0.01  0.00  0.00  0.85  0.14  0.00  0.00  0.00  0.00
  C530-S                  1.00   0.33  0.00  0.00  0.47  0.20  0.00  0.00  0.00  0.00
  C532                    1.00   0.01  0.00  0.00  0.93  0.06  0.00  0.00  0.99  0.00
  C532-S                  1.00   0.33  0.59  0.00  0.08  0.00  0.00  0.00  0.99  0.00
  C548                    1.00   0.01  0.00  0.00  0.98  0.01  0.00  0.00  0.97  0.00
  C548-S                  1.00   0.89  0.00  0.00  0.01  0.10  0.00  0.00  0.00  0.00
  C549                    1.00   0.01  0.00  0.00  0.99  0.00  0.00  0.00  0.90  0.00
  C549-S                  1.00   0.88  0.05  0.00  0.07  0.00  0.00  0.00  0.99  0.00
  C550                    1.00   0.01  0.00  0.00  0.00  0.99  0.00  0.00  0.14  0.00
  C550-S                  1.00   0.48  0.00  0.00  0.38  0.14  0.00  0.00  0.00  0.00
  C551                    1.00   0.01  0.00  0.00  0.98  0.01  0.00  0.00  0.99  0.00
  C551-S                  1.00   0.87  0.00  0.00  0.00  0.13  0.00  0.00  0.02  0.00
  C556                    1.00   0.01  0.00  0.00  0.35  0.64  0.00  0.00  0.95  0.00
  C556-S                  1.00   0.84  0.00  0.00  0.07  0.09  0.00  0.00  0.00  0.00
  C576                    1.00   0.01  0.00  0.00  0.00  0.99  0.00  0.00  0.00  0.00
  C576-S                  1.00   0.00  0.88  0.00  0.07  0.05  0.00  0.00  0.94  0.00
  C602                    1.00   0.01  0.00  0.00  0.99  0.00  0.00  0.00  0.98  0.00
  C602-S                  1.00   0.35  0.00  0.00  0.44  0.21  0.00  0.00  0.02  0.00
  C610                    1.00   0.01  0.00  0.00  0.00  0.99  0.00  0.00  0.08  0.00
  C638                    1.00   0.00  0.01  0.00  0.99  0.00  0.00  0.00  0.99  0.00
  C638-S                  1.00   0.70  0.00  0.00  0.30  0.00  0.00  0.00  0.00  0.00
  C65                     1.00   0.00  0.00  0.00  0.00  1.00  0.00  0.00  1.00  0.00
  C650                    1.00   0.01  0.00  0.00  0.99  0.00  0.00  0.00  0.14  0.00
  C650-S                  1.00   0.02  0.00  0.00  0.49  0.49  0.00  0.00  0.07  0.00
  C659                    1.00   0.01  0.00  0.00  0.99  0.00  0.00  0.00  0.96  0.00
  C659-S                  1.00   0.55  0.00  0.00  0.43  0.02  0.00  0.00  0.00  0.00
  C65-S                   1.00   0.70  0.00  0.00  0.11  0.19  0.00  0.00  0.00  0.00
  C677                    1.00   0.01  0.00  0.00  0.98  0.00  0.00  0.00  0.99  0.00
  C677-S                  1.00   0.46  0.03  0.00  0.50  0.02  0.00  0.00  0.19  0.00
  C68                     1.00   0.00  0.00  0.00  0.00  1.00  0.00  0.00  0.00  0.00
  C681                    1.00   0.00  0.01  0.00  0.96  0.03  0.00  0.00  0.99  0.00
  C681-S                  1.00   0.87  0.01  0.00  0.02  0.09  0.00  0.00  0.98  0.00
  C685                    1.00   0.00  0.00  0.00  0.99  0.01  0.00  0.00  0.00  0.00
  C685-S                  1.00   0.35  0.53  0.00  0.11  0.01  0.00  0.00  0.98  0.00
  C686                    1.00   0.00  0.00  0.00  1.00  0.00  0.00  0.00  0.17  0.00
  C687                    1.00   0.00  0.01  0.00  0.08  0.91  0.00  0.00  0.10  0.00
  C687-S                  1.00   0.66  0.00  0.00  0.27  0.07  0.00  0.00  0.05  0.00
  C68-S                   1.00   0.88  0.01  0.00  0.10  0.02  0.00  0.00  0.02  0.00
  C69                     1.00   0.00  0.00  0.00  0.00  1.00  0.00  0.00  0.01  0.00
  C69-S                   1.00   0.00  0.89  0.00  0.05  0.06  0.00  0.00  0.92  0.00
  C6-S                    1.00   0.48  0.30  0.00  0.10  0.12  0.00  0.00  0.87  0.00
  C707                    1.00   0.00  0.00  0.00  1.00  0.00  0.00  0.00  0.05  0.00
  C708                    1.00   0.00  0.01  0.00  0.99  0.00  0.00  0.00  0.99  0.00
  C708-S                  1.00   0.54  0.00  0.00  0.35  0.11  0.00  0.00  0.06  0.00
  C713                    1.00   0.01  0.00  0.00  0.84  0.15  0.00  0.00  0.95  0.00
  C719                    1.00   0.01  0.00  0.00  0.99  0.00  0.00  0.00  0.00  0.00
  C725                    1.00   0.01  0.00  0.00  0.98  0.01  0.00  0.00  0.98  0.00
  C725-S                  1.00   0.87  0.03  0.00  0.09  0.01  0.00  0.00  0.98  0.00
  C728                    1.00   0.01  0.00  0.00  0.10  0.89  0.00  0.00  0.10  0.00
  C728-S                  1.00   0.69  0.00  0.00  0.20  0.11  0.00  0.00  0.06  0.00
  C729                    1.00   0.01  0.00  0.00  0.21  0.78  0.00  0.00  0.98  0.00
  C729-S                  1.00   0.49  0.00  0.00  0.38  0.14  0.00  0.00  0.04  0.00
  C732                    1.00   0.00  0.01  0.00  0.89  0.10  0.00  0.00  0.94  0.00
  C734                    1.00   0.01  0.00  0.00  0.99  0.00  0.00  0.00  0.92  0.00
  C734-S                  1.00   0.80  0.00  0.00  0.17  0.03  0.00  0.00  0.08  0.00
  C737                    1.00   0.01  0.00  0.00  0.00  0.99  0.00  0.00  0.07  0.00
  C74                     1.00   0.00  0.00  0.00  0.00  1.00  0.00  0.00  0.99  0.00
  C740                    1.00   0.01  0.00  0.00  0.00  0.00  0.00  0.99  0.00  0.00
  C740-S                  1.00   0.58  0.00  0.00  0.33  0.09  0.00  0.00  0.09  0.00
  C742                    1.00   0.01  0.00  0.00  0.00  0.00  0.00  0.99  0.00  0.00
  C742-S                  1.00   0.92  0.04  0.00  0.03  0.00  0.00  0.00  0.99  0.00
  C744                    1.00   0.01  0.00  0.00  0.00  0.00  0.00  0.99  0.00  0.00
  C744-S                  1.00   0.65  0.00  0.00  0.26  0.09  0.00  0.00  0.01  0.00
  C74-S                   1.00   0.00  0.00  0.00  0.00  1.00  0.00  0.00  0.00  0.00
  C752                    1.00   0.00  0.00  0.00  1.00  0.00  0.00  0.00  0.12  0.00
  C752-S                  1.00   0.47  0.00  0.00  0.39  0.14  0.00  0.00  0.06  0.00
  C753                    1.00   0.00  0.00  0.00  0.97  0.02  0.00  0.00  1.00  0.00
  C756                    1.00   0.00  0.01  0.00  0.73  0.27  0.00  0.00  0.22  0.00
  C756-S                  1.00   0.53  0.01  0.00  0.35  0.11  0.00  0.00  0.15  0.00
  C758                    1.00   0.01  0.00  0.00  0.74  0.24  0.00  0.00  0.99  0.00
  C758-S                  1.00   0.89  0.08  0.00  0.03  0.00  0.00  0.00  0.99  0.00
  C759                    1.00   0.01  0.59  0.00  0.40  0.00  0.00  0.00  0.98  0.00
  C759-S                  1.00   0.95  0.00  0.00  0.01  0.03  0.00  0.00  0.88  0.00
  C760                    1.00   0.01  0.00  0.00  0.00  0.99  0.00  0.00  0.25  0.00
  C761                    1.00   0.01  0.00  0.00  0.00  0.00  0.00  0.99  0.00  0.00
  C761-S                  1.00   0.66  0.00  0.00  0.33  0.01  0.00  0.00  0.11  0.00
  C771                    1.00   0.01  0.00  0.00  0.28  0.71  0.00  0.00  0.95  0.00
  C771-S                  1.00   0.59  0.00  0.00  0.26  0.15  0.00  0.00  0.08  0.00
  C772                    1.00   0.01  0.00  0.00  0.02  0.97  0.00  0.00  0.05  0.00
  C772-S                  1.00   0.86  0.00  0.00  0.04  0.10  0.00  0.00  0.03  0.00
  C773                    1.00   0.00  0.00  0.00  1.00  0.00  0.00  0.00  0.95  0.00
  C779                    1.00   0.01  0.00  0.00  0.99  0.00  0.00  0.00  0.98  0.00
  C779-S                  1.00   0.77  0.04  0.00  0.18  0.01  0.00  0.00  0.98  0.00
  C783                    1.00   0.01  0.00  0.00  0.87  0.12  0.00  0.00  0.95  0.00
  C79                     1.00   0.00  0.00  0.00  0.00  1.00  0.00  0.00  0.98  0.00
  C797                    1.00   0.01  0.00  0.00  0.99  0.00  0.00  0.00  0.98  0.00
  C797-S                  1.00   0.66  0.00  0.00  0.33  0.01  0.00  0.00  0.13  0.00
  C79-S                   1.00   0.82  0.00  0.00  0.09  0.09  0.00  0.00  0.01  0.00
  C7-S                    1.00   0.67  0.11  0.00  0.07  0.15  0.00  0.00  0.02  0.00
  C8                      1.00   0.01  0.00  0.00  0.99  0.00  0.00  0.00  0.00  0.00
  C800                    1.00   0.78  0.09  0.00  0.09  0.04  0.00  0.00  0.01  0.00
  C816                    1.00   0.01  0.00  0.00  0.61  0.38  0.00  0.00  0.99  0.00
  C816-S                  1.00   0.41  0.16  0.00  0.40  0.03  0.00  0.00  0.68  0.00
  C830                    1.00   0.01  0.00  0.00  0.14  0.85  0.00  0.00  0.00  0.00
  C830-S                  1.00   0.82  0.00  0.00  0.01  0.18  0.00  0.00  0.00  0.00
  C834                    1.00   0.00  0.00  0.00  1.00  0.00  0.00  0.00  0.00  0.00
  C839                    1.00   0.01  0.00  0.00  0.35  0.64  0.00  0.00  0.98  0.00
  C839-S                  1.00   0.56  0.00  0.00  0.35  0.09  0.00  0.00  0.02  0.00
  C84                     1.00   0.00  0.74  0.00  0.25  0.00  0.00  0.00  0.96  0.00
  C84-S                   1.00   0.93  0.03  0.00  0.03  0.00  0.00  0.00  0.98  0.00
  C86                     1.00   0.00  0.00  0.00  0.01  0.99  0.00  0.00  0.19  0.00
  C89                     1.00   0.00  0.00  0.00  0.01  0.99  0.00  0.00  0.00  0.00
  C89-S                   1.00   0.55  0.09  0.00  0.27  0.08  0.00  0.00  0.86  0.00
  C9                      1.00   0.00  0.00  0.00  0.46  0.54  0.00  0.00  0.00  0.00
  C94                     1.00   0.00  0.00  0.00  0.97  0.03  0.00  0.00  0.99  0.00
  
  
  *************************
  Conduit Surcharge Summary
  *************************
  
  ----------------------------------------------------------------------------
                                                           Hours        Hours 
                         --------- Hours Full --------   Above Full   Capacity
  Conduit                Both Ends  Upstream  Dnstream   Normal Flow   Limited
  ----------------------------------------------------------------------------
  C102                        0.01      0.31      0.01      0.64         0.01
  C105                        0.01      0.01      1.22      0.01         0.01
  C113                        0.01      0.01      0.32      0.01         0.01
  C164                        0.01      0.01      0.01      0.60         0.01
  C182                        0.01      0.01      0.76      0.01         0.01
  C187                        0.01      0.01      0.01      1.48         0.01
  C190                        0.32      0.32      0.40      0.01         0.02
  C191                        0.31      0.31      0.45      1.43         0.01
  C211                        0.01      0.01      1.84      0.01         0.01
  C229                        0.01      0.01      1.04      0.01         0.01
  C240                        0.48      0.48      0.77      0.48         0.46
  C260                        0.01      0.01      0.96      0.01         0.01
  C321                        0.01      0.01      0.37      0.01         0.01
  C325                        0.45      0.45      0.53      0.19         0.11
  C327                        0.53      0.53      0.72      0.01         0.01
  C328                        0.43      0.43      0.66      0.01         0.01
  C329                        0.01      0.66      0.01      0.86         0.37
  C34                         0.01      0.01      0.97      0.01         0.01
  C340                        0.01      0.01      0.68      0.01         0.01
  C361                        0.01      0.01      0.51      0.01         0.01
  C382                        0.01      0.01      0.29      0.01         0.01
  C417                        0.01      0.01      0.61      0.01         0.01
  C418                        0.01      0.39      0.01      0.60         0.01
  C530                        0.12      0.12      0.15      0.09         0.04
  C532                        0.01      0.01      0.12      0.01         0.01
  C548                        0.46      0.46      0.88      0.01         0.01
  C549                        0.13      0.13      0.13      0.27         0.12
  C551                        0.01      0.01      4.88      0.01         0.01
  C556                        0.15      0.15      0.46      0.01         0.01
  C576                        0.01      0.13      0.01      0.43         0.01
  C659                        0.01      0.01      0.33      0.01         0.01
  C686                        0.66      0.66     59.00      0.34         0.33
  C687                        0.01      0.01      0.66      0.01         0.01
  C707                        0.01      0.01     59.00      0.01         0.01
  C719                        0.01      1.33      0.01      1.84         0.84
  C734                        0.01      0.01      0.37      0.01         0.01
  C752                        0.01      0.01      0.50      0.01         0.01
  C756                        0.01      0.01      0.50      0.01         0.01
  C771                        0.01      0.01      0.09      0.01         0.01
  C772                        0.09      0.09      0.96      0.01         0.01
  C773                        0.01      0.34      0.01      0.53         0.07
  C779                        0.08      0.08      1.11      0.01         0.01
  C8                          0.01      0.33      0.01      1.15         0.01
  C816                        0.01      0.01      0.28      0.01         0.01
  C84                         0.07      0.07      0.55      0.01         0.01
  

  Analysis begun on:  Thu Apr 23 16:56:44 2026
  Analysis ended on:  Thu Apr 23 17:00:21 2026
  Total elapsed time: 00:03:37